<?xml version="1.0" encoding="UTF-8"?>

<!-- generated on 2025-06-12 17:47:46 by Eclipse SUMO polyconvert Version 1.23.1
<polyconvertConfiguration xmlns:xsi="http://www.w3.org/2001/XMLSchema-instance" xsi:noNamespaceSchemaLocation="http://sumo.dlr.de/xsd/polyconvertConfiguration.xsd">

    <input>
        <net-file value="3gousen_new.net.xml"/>
        <osm-files value="3gousen.osm"/>
        <type-file value="typemap.xml"/>
    </input>

    <output>
        <output-file value="3gousen_colored.poly.xml"/>
    </output>

</polyconvertConfiguration>
-->

<additional xmlns:xsi="http://www.w3.org/2001/XMLSchema-instance" xsi:noNamespaceSchemaLocation="http://sumo.dlr.de/xsd/additional_file.xsd">
    <location netOffset="-632404.04,-3729331.63" convBoundary="-2795.62,-1757.90,3746.83,3717.27" origBoundary="130.398264,33.679529,130.468771,33.728795" projParameter="+proj=utm +zone=52 +ellps=WGS84 +datum=WGS84 +units=m +no_defs"/>

    <poly id="1312508259" type="house" color="217,217,217" fill="1" layer="-2.00" shape="1044.606074,447.551934 1034.764378,437.355344 1026.064250,445.674094 1028.211837,447.888925 1020.103512,455.650303 989.758224,439.334121 984.591818,448.855613 1016.722141,466.128295 1019.887418,465.828619 1020.105808,468.116364 1024.292141,467.720020 1024.001162,464.654909 1027.027260,464.364385 1044.606074,447.551934"/>
    <poly id="1312508260" type="building" color="214,214,214" fill="1" layer="-2.00" shape="1048.787713,442.175778 1044.108533,437.363665 1040.049415,441.266459 1044.728594,446.078570 1048.787713,442.175778"/>
    <poly id="1393689959" type="building" color="214,214,214" fill="1" layer="-2.00" shape="1334.925732,503.377284 1335.472186,504.737999 1342.155498,502.114176 1339.236192,494.764538 1332.916353,497.249263 1332.182239,495.386840 1324.687938,498.332059 1327.804181,506.183530 1334.925732,503.377284"/>
    <poly id="1393689961" type="building" color="214,214,214" fill="1" layer="-2.00" shape="1008.944611,586.454557 1005.281668,587.213107 1004.517402,583.520314 1008.189614,582.761892 1008.944611,586.454557"/>
    <poly id="1393689962" type="building" color="214,214,214" fill="1" layer="-2.00" shape="1293.987698,553.234966 1289.794230,554.806714 1289.088538,552.900328 1286.097021,554.034151 1283.871665,548.102757 1291.056500,545.408272 1293.987698,553.234966"/>
    <poly id="1393689963" type="building" color="214,214,214" fill="1" layer="-2.00" shape="1389.808070,505.774921 1384.261469,505.996813 1384.370998,508.771043 1378.064093,509.004488 1378.147093,511.024173 1373.917517,511.197942 1373.986169,512.917974 1368.216979,513.147854 1367.878368,504.215032 1373.350669,504.003182 1373.288185,502.505052 1378.510243,502.289706 1378.426467,500.325465 1384.019412,500.104217 1383.944440,498.173371 1389.500314,497.951608 1389.808070,505.774921"/>
    <poly id="1393689965" type="building" color="214,214,214" fill="1" layer="-2.00" shape="1257.940225,498.563914 1250.578291,506.634982 1248.383961,504.452717 1255.855255,496.516264 1257.940225,498.563914"/>
    <poly id="1393689969" type="building" color="214,214,214" fill="1" layer="-2.00" shape="1242.146029,494.439330 1232.480420,504.175124 1230.313581,502.015429 1231.620453,500.702788 1226.875120,495.989473 1227.599152,495.256502 1226.885985,494.547822 1231.775172,489.625255 1232.854114,490.693949 1234.471332,489.064010 1233.749051,488.344112 1234.867927,487.217388 1242.146029,494.439330"/>
    <poly id="1393689975" type="building" color="214,214,214" fill="1" layer="-2.00" shape="1247.582602,499.439579 1246.746420,500.237526 1248.884368,502.474456 1238.643354,512.257660 1236.706366,510.234264 1237.175973,509.797192 1236.015633,508.583180 1236.372783,508.233263 1234.161772,505.917680 1235.007220,505.119861 1233.919787,503.995594 1242.121867,496.169155 1243.446713,497.551827 1244.668004,496.393263 1247.582602,499.439579"/>
    <poly id="1393689976" type="building" color="214,214,214" fill="1" layer="-2.00" shape="1278.663735,547.309089 1269.123205,550.747026 1266.552645,543.646281 1276.083757,540.219301 1278.663735,547.309089"/>
    <poly id="1393689978" type="building" color="214,214,214" fill="1" layer="-2.00" shape="994.779582,550.589120 987.205662,545.958489 994.016841,534.818497 1003.392338,540.550059 1001.106133,544.289045 999.313985,543.177161 994.779582,550.589120"/>
    <poly id="1393689979" type="building" color="214,214,214" fill="1" layer="-2.00" shape="1318.256644,573.792635 1316.406666,574.831495 1319.084181,579.582503 1311.861455,583.662786 1303.892376,569.510475 1310.601019,565.733544 1312.871545,569.757960 1314.235238,569.022845 1315.685139,571.405447 1316.619396,570.886147 1318.256644,573.792635"/>
    <poly id="1393689980" type="building" color="214,214,214" fill="1" layer="-2.00" shape="1361.548584,504.758711 1361.392662,496.682435 1364.897770,496.609440 1365.102531,507.159646 1364.623716,506.265688 1363.775843,505.910020 1362.821058,505.907762 1361.548584,504.758711"/>
    <poly id="1393689983" type="building" color="214,214,214" fill="1" layer="-2.00" shape="1246.914658,520.048019 1245.301006,521.422918 1241.260231,516.708345 1242.883307,515.322487 1246.914658,520.048019"/>
    <poly id="1393689985" type="building" color="214,214,214" fill="1" layer="-2.00" shape="1030.685240,518.471832 1017.456389,529.145218 1011.551087,521.853869 1023.270590,512.390502 1027.416813,517.527898 1028.935585,516.306912 1030.685240,518.471832"/>
    <poly id="1393689986" type="building" color="214,214,214" fill="1" layer="-2.00" shape="1285.609846,520.566436 1279.896165,523.458933 1277.902420,519.527119 1283.616103,516.634621 1285.609846,520.566436"/>
    <poly id="1393689987" type="building" color="214,214,214" fill="1" layer="-2.00" shape="944.068183,681.274587 943.823050,680.239728 940.214521,681.087787 939.006773,675.958108 941.582993,675.350749 940.725567,671.689934 940.498043,670.721866 950.030899,668.481308 950.406861,670.105801 956.349875,668.702476 956.516231,669.403513 957.898822,675.289804 956.243386,675.677088 956.856137,678.269779 944.068183,681.274587"/>
    <poly id="1393689993" type="building" color="214,214,214" fill="1" layer="-2.00" shape="1082.791213,549.099383 1069.966278,552.081334 1064.999243,530.695570 1061.056061,531.605462 1058.188084,519.232514 1055.054174,519.942972 1054.336868,516.871913 1057.489625,516.139535 1057.017291,514.114425 1062.225290,512.911633 1062.487405,514.057639 1069.592777,512.404414 1072.714515,525.856713 1077.150618,524.831703 1082.791213,549.099383"/>
    <poly id="1393689994" type="building" color="214,214,214" fill="1" layer="-2.00" shape="973.372807,584.006630 972.422198,584.370464 973.549487,587.291962 960.883576,592.172794 958.029663,584.768741 960.667082,583.762971 959.987123,582.001151 963.808246,580.534979 964.353665,581.973291 971.529879,579.222998 973.372807,584.006630"/>
    <poly id="1393689995" type="building" color="214,214,214" fill="1" layer="-2.00" shape="1259.066154,538.073934 1257.834489,535.993841 1257.105372,536.427287 1253.600824,530.489122 1256.236614,528.939961 1255.267685,527.296079 1258.688824,525.269895 1264.384694,534.931907 1259.066154,538.073934"/>
    <poly id="1393689996" type="building" color="214,214,214" fill="1" layer="-2.00" shape="1299.824082,538.244141 1299.217552,536.538774 1303.046625,535.172662 1304.872494,534.532731 1305.826692,537.230037 1303.143654,538.179622 1302.786717,537.187554 1299.824082,538.244141"/>
    <poly id="1393690001" type="building" color="214,214,214" fill="1" layer="-2.00" shape="1323.524033,541.148423 1320.494660,542.337160 1315.552131,544.441877 1313.675854,539.402618 1310.011439,540.926298 1307.546981,534.858467 1319.676661,530.558399 1323.524033,541.148423"/>
    <poly id="1393690002" type="building" color="214,214,214" fill="1" layer="-2.00" shape="1005.540991,530.720320 1008.216351,535.637565 1005.405085,540.467215 993.285905,533.388688 997.559722,526.050729 1005.540991,530.720320"/>
    <poly id="1393690003" type="building" color="214,214,214" fill="1" layer="-2.00" shape="1297.700655,575.435157 1286.623936,582.666840 1282.540023,576.398934 1293.607477,569.167116 1297.700655,575.435157"/>
    <poly id="1393690007" type="building" color="214,214,214" fill="1" layer="-2.00" shape="1307.218001,547.785730 1299.854123,550.688426 1295.100517,538.610674 1299.173971,537.003978 1300.507519,540.416395 1303.807217,539.120521 1307.218001,547.785730"/>
    <poly id="1393690008" type="building" color="214,214,214" fill="1" layer="-2.00" shape="950.930446,579.335128 948.506987,577.626644 947.721810,578.758050 941.204000,574.175447 942.471126,572.385311 944.123634,573.539601 945.920596,570.980496 953.200245,576.106078 950.930446,579.335128"/>
    <poly id="1393690009" type="building" color="214,214,214" fill="1" layer="-2.00" shape="1301.459475,527.353658 1294.113374,529.646614 1290.821284,519.119817 1298.158124,516.826729 1301.459475,527.353658"/>
    <poly id="1393690010" type="building" color="214,214,214" fill="1" layer="-2.00" shape="999.976892,574.085299 998.834742,574.224645 998.975913,575.402236 992.169356,576.238959 991.063151,567.151283 999.002442,566.186172 999.976892,574.085299"/>
    <poly id="1393690011" type="building" color="214,214,214" fill="1" layer="-2.00" shape="1335.096874,572.042763 1325.184255,574.909813 1323.150832,567.849831 1333.063303,564.993867 1335.096874,572.042763"/>
    <poly id="1393690013" type="building" color="214,214,214" fill="1" layer="-2.00" shape="1210.303191,589.375348 1201.152367,595.447308 1196.612894,588.607450 1205.763721,582.535485 1210.303191,589.375348"/>
    <poly id="1393690021" type="building" color="214,214,214" fill="1" layer="-2.00" shape="1361.548584,504.758711 1362.821058,505.907762 1363.775843,505.910020 1364.623716,506.265688 1365.102531,507.159646 1365.237956,508.082075 1362.780186,510.820411 1365.270298,513.062293 1352.059541,527.717082 1351.162261,526.917092 1349.090853,529.206110 1348.440869,528.620303 1348.177328,528.904979 1342.739273,524.015557 1343.454974,523.215934 1342.777650,522.596472 1344.312398,520.898854 1342.444928,519.209130 1352.510790,508.037235 1351.302417,506.944536 1356.971040,500.646577 1361.548584,504.758711"/>
    <poly id="1393690023" type="building" color="214,214,214" fill="1" layer="-2.00" shape="1352.086671,560.257845 1353.569517,561.609470 1350.868155,564.532947 1347.518004,561.480508 1348.581587,560.330844 1340.187897,552.682861 1362.779162,528.133124 1372.765529,537.234107 1368.557829,541.811228 1371.203166,544.221643 1369.537111,546.028330 1367.166255,543.876840 1352.086671,560.257845"/>
    <poly id="1393690024" type="building" color="214,214,214" fill="1" layer="-2.00" shape="946.573218,636.558234 940.238603,638.787917 937.001620,629.604007 943.336086,627.385411 946.573218,636.558234"/>
    <poly id="1393690026" type="building" color="214,214,214" fill="1" layer="-2.00" shape="973.707774,528.723800 970.416568,535.398928 961.355228,531.069216 964.646584,524.382996 973.707774,528.723800"/>
    <poly id="1393690027" type="building" color="214,214,214" fill="1" layer="-2.00" shape="947.395676,585.529966 944.768628,583.796463 944.162483,584.719640 938.770598,581.161991 942.037659,576.216676 949.174734,580.929910 950.045951,579.611160 950.918545,580.188952 947.395676,585.529966"/>
    <poly id="1393690034" type="building" color="214,214,214" fill="1" layer="-2.00" shape="991.649990,579.581132 981.535460,581.647181 980.866950,578.399356 982.456600,578.077704 981.293505,572.405194 989.827662,570.660924 991.649990,579.581132"/>
    <poly id="1393690038" type="building" color="214,214,214" fill="1" layer="-2.00" shape="1287.624114,572.122384 1280.952304,574.591133 1278.379745,567.634536 1276.702330,568.265456 1275.317662,564.530695 1277.833708,563.589860 1278.521485,565.451631 1284.345402,563.292666 1287.624114,572.122384"/>
    <poly id="1393690042" type="building" color="214,214,214" fill="1" layer="-2.00" shape="958.339596,595.120751 948.254426,599.072676 946.088036,593.552549 950.953523,591.646206 950.371803,590.151935 955.600760,588.106480 958.339596,595.120751"/>
    <poly id="1393690047" type="building" color="214,214,214" fill="1" layer="-2.00" shape="1272.817106,530.524675 1266.109358,534.900548 1260.600350,526.461131 1263.584799,524.506483 1266.035324,528.256132 1269.749357,525.834775 1272.817106,530.524675"/>
    <poly id="1393690048" type="building" color="214,214,214" fill="1" layer="-2.00" shape="963.328257,515.214734 954.795343,510.215858 957.675797,505.076617 953.152452,502.385057 958.516673,493.298848 972.790472,502.093160 967.578088,510.926391 966.163763,509.975051 963.328257,515.214734"/>
    <poly id="1393690052" type="building" color="214,214,214" fill="1" layer="-2.00" shape="1315.721092,514.443652 1314.966955,514.677110 1317.017818,522.480416 1304.030862,525.770336 1301.882871,516.956414 1308.206223,514.882078 1306.232973,508.821112 1312.781218,507.237916 1314.275646,512.404928 1315.289139,512.186185 1315.721092,514.443652"/>
    <poly id="1393690053" type="building" color="214,214,214" fill="1" layer="-2.00" shape="1002.971345,581.380418 996.287744,582.706847 995.871783,580.627073 993.780416,581.030454 993.295720,578.561544 1002.079960,576.831863 1002.971345,581.380418"/>
    <poly id="1393690055" type="building" color="214,214,214" fill="1" layer="-2.00" shape="1273.047965,539.877434 1266.001408,541.963871 1265.160431,539.123971 1264.173662,539.420728 1263.164179,536.035025 1273.161160,533.102545 1274.755076,538.448392 1272.782158,538.997548 1273.047965,539.877434"/>
    <poly id="1393690056" type="building" color="214,214,214" fill="1" layer="-2.00" shape="979.115553,565.720368 974.466455,568.062254 971.949420,563.091772 974.079010,555.956820 979.115553,565.720368"/>
    <poly id="1393690057" type="building" color="214,214,214" fill="1" layer="-2.00" shape="1289.857972,541.620657 1281.910043,544.526296 1279.865244,538.941241 1287.822445,536.035729 1289.857972,541.620657"/>
    <poly id="1393690058" type="building" color="214,214,214" fill="1" layer="-2.00" shape="986.830244,592.168507 986.456913,590.355506 982.159410,591.415761 980.868109,585.630556 992.800594,582.824589 994.558365,590.390823 986.830244,592.168507"/>
    <poly id="1393690061" type="building" color="214,214,214" fill="1" layer="-2.00" shape="1274.330239,513.122188 1270.272993,514.895483 1268.476018,511.476597 1271.136367,510.160689 1271.872842,511.191331 1273.258923,510.844700 1274.330239,513.122188"/>
    <poly id="1393690062" type="building" color="214,214,214" fill="1" layer="-2.00" shape="1028.235236,555.225764 1034.884210,557.048654 1032.520992,565.644318 1022.123059,562.770979 1022.274735,553.223937 1028.908299,552.828453 1028.235236,555.225764"/>
    <poly id="1393690063" type="building" color="214,214,214" fill="1" layer="-2.00" shape="961.485171,563.644624 958.733835,572.822704 949.047840,570.081367 949.895287,566.477587 946.536197,565.388237 948.067648,559.930740 961.485171,563.644624"/>
    <poly id="1393690064" type="shop" color="230,204,204" fill="1" layer="-2.00" shape="1049.594337,506.635521 1048.777684,504.705427 1044.618684,506.466305 1042.150029,500.686853 1060.766074,492.584067 1063.984328,500.447956 1057.932424,503.003142 1057.053059,500.916901 1053.071235,502.602612 1053.995704,504.778208 1049.594337,506.635521"/>
    <poly id="1393690065" type="building" color="214,214,214" fill="1" layer="-2.00" shape="1046.495003,579.968866 1033.498048,582.660104 1030.918296,570.224638 1033.484046,569.705883 1032.980359,567.269978 1045.605370,564.662277 1048.689096,579.511475 1046.495003,579.968866"/>
    <poly id="1393690068" type="building" color="214,214,214" fill="1" layer="-2.00" shape="1215.101013,585.017128 1210.418791,587.735526 1202.971926,575.342943 1207.646587,572.502437 1215.101013,585.017128"/>
    <poly id="1393690070" type="building" color="214,214,214" fill="1" layer="-2.00" shape="1304.897242,582.511833 1291.750412,591.278382 1288.400184,586.240713 1289.588398,585.458779 1288.298813,583.544234 1300.257433,575.559612 1304.897242,582.511833"/>
    <poly id="1393690072" type="building" color="214,214,214" fill="1" layer="-2.00" shape="957.339558,519.223754 956.215455,522.058414 954.021209,521.196022 955.145312,518.361362 957.339558,519.223754"/>
    <poly id="1393690073" type="building" color="214,214,214" fill="1" layer="-2.00" shape="1282.555546,534.154338 1277.368486,536.510746 1272.970491,526.844676 1278.157865,524.466089 1282.555546,534.154338"/>
    <poly id="1393690077" type="building" color="214,214,214" fill="1" layer="-2.00" shape="1289.331039,531.565040 1285.035429,533.811901 1279.978931,524.169900 1284.283812,521.923165 1289.331039,531.565040"/>
    <poly id="1393690078" type="building" color="214,214,214" fill="1" layer="-2.00" shape="963.484829,610.386830 951.391264,614.776567 949.695231,610.094803 951.204706,609.539122 950.606615,607.889352 961.190711,604.055293 963.484829,610.386830"/>
    <poly id="1393690079" type="building" color="214,214,214" fill="1" layer="-2.00" shape="1007.527819,516.540743 999.389614,523.126097 993.055799,515.318611 1001.203430,508.722291 1007.527819,516.540743"/>
    <poly id="1393690083" type="building" color="214,214,214" fill="1" layer="-2.00" shape="1017.600494,573.321783 1019.268456,573.367224 1020.134793,579.046691 1007.325228,580.930952 1007.281507,581.407245 1003.500395,581.997788 1001.244561,566.938335 1007.790998,566.142353 1008.189803,568.787518 1016.745898,567.465027 1017.600494,573.321783"/>
    <poly id="1393690084" type="building" color="214,214,214" fill="1" layer="-2.00" shape="1299.102332,514.932307 1296.646994,515.507990 1295.929764,512.436910 1298.366411,511.872057 1299.102332,514.932307"/>
    <poly id="1393690092" type="building" color="214,214,214" fill="1" layer="-2.00" shape="943.913110,740.286431 931.726908,740.693307 931.530155,734.856818 943.716365,734.449941 943.913110,740.286431"/>
    <poly id="1393690098" type="building" color="214,214,214" fill="1" layer="-2.00" shape="989.107347,531.899720 987.232540,532.062126 986.953757,528.786461 988.828565,528.624056 989.107347,531.899720"/>
    <poly id="1393690106" type="building" color="214,214,214" fill="1" layer="-2.00" shape="981.678672,521.503918 969.619400,512.784823 975.848354,504.176490 982.474634,508.960260 980.962191,511.057513 987.671105,515.897894 984.372338,520.454575 983.096576,519.538437 981.678672,521.503918"/>
    <poly id="1393690108" type="building" color="214,214,214" fill="1" layer="-2.00" shape="960.916691,603.097667 947.667378,607.937111 945.720953,602.597503 947.565937,601.913408 947.235688,600.999362 958.630756,596.843880 960.916691,603.097667"/>
    <poly id="1393690114" type="building" color="214,214,214" fill="1" layer="-2.00" shape="1018.511606,548.535516 1016.525643,555.339739 1013.026605,554.314958 1015.012721,547.499646 1018.511606,548.535516"/>
    <poly id="1393690117" type="building" color="214,214,214" fill="1" layer="-2.00" shape="1348.946241,504.405079 1345.063736,508.265855 1343.454845,506.646291 1347.328082,502.785385 1348.946241,504.405079"/>
    <poly id="1393690118" type="building" color="214,214,214" fill="1" layer="-2.00" shape="1256.305161,518.060856 1253.222040,515.134182 1254.125112,514.192990 1249.184699,509.510210 1257.539598,500.698839 1266.084608,508.803580 1263.911112,511.102281 1263.380370,510.606871 1256.305161,518.060856"/>
    <poly id="1393690123" type="building" color="214,214,214" fill="1" layer="-2.00" shape="966.111719,543.634817 963.782939,542.448915 963.279823,543.295892 957.103671,540.137660 958.731657,537.066027 961.014252,538.240193 962.481898,535.365959 968.676278,538.546629 966.111719,543.634817"/>
    <poly id="1393690125" type="shop" color="230,204,204" fill="1" layer="-2.00" shape="1020.578433,504.689235 1011.116843,512.442838 1004.517034,504.432001 1014.036400,496.523926 1020.578433,504.689235"/>
    <poly id="1393690126" type="building" color="214,214,214" fill="1" layer="-2.00" shape="1013.347583,543.927379 1006.844746,552.232419 1003.261709,560.555993 999.264362,558.703552 1003.221990,550.107930 1010.064820,541.352907 1013.347583,543.927379"/>
    <poly id="1393690134" type="building" color="214,214,214" fill="1" layer="-2.00" shape="1283.543787,557.636254 1273.166804,561.228861 1270.121766,552.923681 1280.601791,549.254874 1283.543787,557.636254"/>
    <poly id="1393690140" type="building" color="214,214,214" fill="1" layer="-2.00" shape="1313.275016,532.265638 1306.581256,534.312613 1304.710889,528.186541 1311.404654,526.139564 1313.275016,532.265638"/>
    <poly id="1393690142" type="building" color="214,214,214" fill="1" layer="-2.00" shape="1083.597925,516.525933 1074.737919,518.365393 1074.173384,515.640277 1083.015011,513.789469 1083.597925,516.525933"/>
    <poly id="1393690143" type="building" color="214,214,214" fill="1" layer="-2.00" shape="1260.186213,592.600802 1258.309343,594.238200 1255.416569,590.959277 1257.284325,589.310661 1260.186213,592.600802"/>
    <poly id="1393690145" type="building" color="214,214,214" fill="1" layer="-2.00" shape="1329.019024,563.850440 1319.699593,566.060340 1317.868701,558.437559 1326.090771,556.478498 1327.177258,560.985455 1328.265511,560.723396 1329.019024,563.850440"/>
    <poly id="1393690147" type="building" color="214,214,214" fill="1" layer="-2.00" shape="985.089403,533.518411 980.302251,545.096984 972.597007,541.906334 977.384151,530.327758 985.089403,533.518411"/>
    <poly id="1393690148" type="building" color="214,214,214" fill="1" layer="-2.00" shape="971.949420,563.091772 965.591309,561.017893 965.772511,559.988977 961.580520,558.799285 961.356532,559.572517 958.318582,558.720545 960.248585,551.937713 967.478531,553.979378 974.079010,555.956820 971.949420,563.091772"/>
    <poly id="1393690149" type="building" color="214,214,214" fill="1" layer="-2.00" shape="1330.125423,532.445694 1328.256869,527.517447 1338.452266,523.656180 1340.017166,527.759466 1336.839340,528.957214 1337.590282,530.941872 1335.456078,531.754940 1335.017900,530.606463 1330.125423,532.445694"/>
    <poly id="1393690150" type="building" color="214,214,214" fill="1" layer="-2.00" shape="1046.495003,579.968866 1047.728492,585.908545 1034.511428,588.430350 1033.498048,582.660104 1046.495003,579.968866"/>
    <poly id="1393690151" type="building" color="214,214,214" fill="1" layer="-2.00" shape="1029.968772,530.628420 1030.662331,531.414446 1026.945572,534.700936 1027.967683,535.857540 1017.455388,545.171373 1011.395157,538.354767 1025.539871,525.819804 1026.452003,526.886147 1029.979380,523.885376 1031.610165,521.279606 1034.282001,523.790111 1034.108017,526.959646 1029.968772,530.628420"/>
    <poly id="1393690153" type="building" color="214,214,214" fill="1" layer="-2.00" shape="1338.692072,541.648795 1338.448682,540.491951 1336.301214,540.927746 1336.066937,539.782120 1332.617734,540.499172 1331.350439,534.337160 1337.021415,533.174260 1337.099404,533.563528 1342.696080,532.410682 1344.362889,540.496988 1338.692072,541.648795"/>
    <poly id="1393690161" type="building" color="214,214,214" fill="1" layer="-2.00" shape="957.831899,552.403113 956.486433,556.487944 951.992299,555.027867 953.328803,550.920728 957.831899,552.403113"/>
    <poly id="1393690162" type="building" color="214,214,214" fill="1" layer="-2.00" shape="1044.296483,559.475719 1041.538417,559.825428 1041.004487,555.570214 1043.753440,555.209287 1044.296483,559.475719"/>
    <poly id="1393690168" type="building" color="214,214,214" fill="1" layer="-2.00" shape="1011.615859,495.270189 995.100284,509.635367 992.496713,506.881829 998.796869,501.147012 996.852725,498.968296 1007.417255,489.899164 1011.615859,495.270189"/>
    <poly id="1393690170" type="building" color="214,214,214" fill="1" layer="-2.00" shape="973.520555,496.269592 972.470906,498.417660 969.775559,496.927197 970.702711,494.921601 973.520555,496.269592"/>
    <poly id="155875663" type="highway" color="102,102,102" fill="0" layer="-1.00" shape="1318.642709,498.413931 1319.465111,505.235169 1322.883368,519.334975 1325.644004,530.741620 1333.026027,546.438452 1332.677863,549.461372 1342.064488,563.666795 1344.553124,570.655510 1349.478486,587.682185 1362.171116,593.504846 1368.517348,596.421727 1408.941814,608.488172 1419.624591,614.182985 1431.616840,621.692838"/>
    <poly id="155875687" type="highway" color="102,102,102" fill="0" layer="-1.00" shape="1452.662986,437.247858 1448.113821,460.264163 1444.800656,469.145904 1443.253045,471.098417 1420.953912,478.050972 1414.111906,478.099458 1398.312937,476.969063 1361.712001,477.156016 1326.390561,477.327719 1323.038359,477.735589 1320.732946,479.522257 1318.963148,486.761990 1318.691371,494.932103 1318.642709,498.413931 1291.028852,505.591956 1280.159454,510.586207 1273.572513,514.276135 1256.457996,520.392057 1245.089594,523.948664"/>
    <poly id="155875797" type="highway" color="102,102,102" fill="0" layer="-1.00" shape="1641.400310,347.448252 1630.765233,329.731438 1593.061937,266.928526 1590.941878,265.401580 1577.953191,271.430551 1572.306774,272.150028 1568.907678,272.590432 1560.321584,271.394413 1558.793572,270.618847 1542.741094,262.408751 1540.025826,261.017665 1504.737905,255.422002 1468.795724,250.205496 1433.389998,245.074265 1390.462895,238.839827 1349.507274,230.170987 1343.943125,228.984134 1340.285284,229.365548 1312.656417,236.898239 1302.400996,247.025000 1301.289903,249.582536 1301.037837,252.362801 1301.866960,254.725633 1304.570006,260.974243 1305.372166,265.266494 1303.265050,278.069089 1298.992190,291.285053 1296.707421,300.879929 1285.582182,327.486548 1280.312156,335.109922 1276.129330,342.548854 1272.823214,348.280964 1265.754467,361.236066 1262.024523,366.119359 1250.202423,381.570041 1246.689203,386.866725 1237.143696,408.571151 1195.138399,444.584131 1223.586960,489.821436"/>
    <poly id="155875802" type="highway" color="102,102,102" fill="0" layer="-1.00" shape="1305.433793,577.284478 1296.085994,560.961295 1297.785880,558.722528 1332.677863,549.461372"/>
    <poly id="155875852" type="highway" color="102,102,102" fill="0" layer="-1.00" shape="1384.904036,559.485604 1373.173099,571.732172 1371.893384,576.405685 1362.171116,593.504846 1354.854481,609.606203 1344.364186,631.252959"/>
    <poly id="155875886" type="highway" color="102,102,102" fill="0" layer="-1.00" shape="1286.703494,432.343412 1292.958201,436.512217 1307.296740,443.977047 1311.536763,445.711010 1314.232947,448.465933 1319.269369,458.218578 1322.016359,467.950320 1323.038359,477.735589"/>
    <poly id="155884438" type="highway" color="102,102,102" fill="0" layer="-1.00" shape="1142.256127,539.293141 1119.723017,498.608218 1077.585811,422.536453"/>
    <poly id="155884451" type="highway" color="102,102,102" fill="0" layer="-1.00" shape="1145.218779,469.163126 1160.396638,459.670554 1183.058202,490.486572"/>
    <poly id="155884463" type="highway" color="102,102,102" fill="0" layer="-1.00" shape="1132.368114,541.728193 1136.118014,554.002570 1173.004808,674.741575 1185.405698,716.061535 1184.919892,725.626100"/>
    <poly id="155884472" type="highway" color="102,102,102" fill="0" layer="-1.00" shape="1322.883368,519.334975 1344.384668,511.749961 1361.715014,494.180423 1361.712001,477.156016"/>
    <poly id="155884513" type="highway" color="102,102,102" fill="0" layer="-1.00" shape="1053.194336,563.559235 1112.675980,546.566223 1132.368114,541.728193 1142.256127,539.293141 1178.574361,530.783327 1182.339643,528.673194"/>
    <poly id="155884531" type="highway" color="102,102,102" fill="0" layer="-1.00" shape="1096.050798,400.690150 1101.607229,405.081988 1145.218779,469.163126 1153.378999,481.598885 1182.339643,528.673194 1195.419634,541.288594 1239.086727,609.929318 1297.245403,702.207623 1306.914947,715.396620"/>
    <poly id="155884542" type="highway" color="102,102,102" fill="0" layer="-1.00" shape="1040.384656,514.936058 1069.389804,504.360770 1079.116410,502.200670 1083.397399,510.301209 1099.377943,506.387315 1102.599718,507.352804 1119.723017,498.608218 1153.378999,481.598885"/>
    <poly id="157189828" type="railway" color="153,153,153" fill="0" layer="-1.00" shape="970.117544,149.169837 1011.001128,216.905449 1051.523128,283.272061 1095.628856,346.550187 1112.664112,369.379789 1156.251839,421.892954 1193.190276,475.888389 1222.520334,520.394923 1252.910504,569.951589 1290.343461,631.595925 1317.462634,675.040464"/>