<?xml version='1.0' encoding='utf-8'?>
<routes xmlns:xsi="http://www.w3.org/2001/XMLSchema-instance" xsi:noNamespaceSchemaLocation="http://sumo.dlr.de/xsd/routes_file.xsd">
    <trip id="0" depart="0.00" from="173941139#1" to="-155875802#0" type="gasoline_car" />
    <trip id="1" depart="1.00" from="-174032652#0" to="-173941896#0" type="gasoline_car" />
    <trip id="2" depart="2.00" from="173942126#0" to="173941546#0" type="gasoline_car" />
    <trip id="3" depart="3.00" from="496906169#1" to="-170841497#4" type="gasoline_car" />
    <trip id="4" depart="4.00" from="-557161306#0" to="-155875802#1" type="gasoline_car" />
    <trip id="5" depart="5.00" from="-173941867" to="155875852#0" type="gasoline_car" />
    <trip id="6" depart="6.00" from="-155875802#0" to="-173941546#0" type="gasoline_car" />
    <trip id="7" depart="7.00" from="173941234#0" to="155884542#1" type="gasoline_car" />
    <trip id="8" depart="8.00" from="-173941888" to="170844796#4" type="gasoline_car" />
    <trip id="9" depart="9.00" from="175562938#0" to="-155875663#2" type="autonomous_car" />
    <trip id="10" depart="10.00" from="-226166368" to="-173941109#3" type="gasoline_car" />
    <trip id="11" depart="11.00" from="557162416" to="-222319957#1" type="gasoline_car" />
    <trip id="12" depart="12.00" from="-170841497#6" to="-170841497#8" type="gasoline_car" />
    <trip id="13" depart="13.00" from="155884531#2" to="67792293#1" type="gasoline_car" />
    <trip id="14" depart="14.00" from="-557160701" to="170841497#1" type="gasoline_car" />
    <trip id="15" depart="15.00" from="222319957#0" to="173941082#2" type="gasoline_car" />
    <trip id="16" depart="16.00" from="278539519#0" to="170844796#0" type="gasoline_car" />
    <trip id="17" depart="17.00" from="173941896#0" to="-155884463#0" type="gasoline_car" />
    <trip id="18" depart="18.00" from="-173941896#1" to="-174032654#1" type="gasoline_car" />
    <trip id="19" depart="19.00" from="-170841497#2" to="-173941985#0" type="gasoline_car" />
    <trip id="20" depart="20.00" from="-170841497#9" to="-174032652#1" type="gasoline_car" />
    <trip id="21" depart="21.00" from="173941139#0" to="-496906168#0" type="gasoline_car" />
    <trip id="22" depart="22.00" from="-496906168#2" to="-173941788#2" type="gasoline_car" />
    <trip id="23" depart="23.00" from="-173942329#0" to="557160752#6" type="gasoline_car" />
    <trip id="24" depart="24.00" from="173941152#1" to="173941019#1" type="gasoline_car" />
    <trip id="25" depart="25.00" from="-173941234#1" to="173942069" type="gasoline_car" />
    <trip id="26" depart="26.00" from="-173941139#2" to="-557160705" type="gasoline_car" />
    <trip id="27" depart="27.00" from="67792308" to="173941139#1" type="gasoline_car" />
    <trip id="28" depart="28.00" from="170841497#2" to="173941779" type="gasoline_car" />
    <trip id="29" depart="29.00" from="251788755#1" to="174032652#4" type="gasoline_car" />
    <trip id="30" depart="30.00" from="-173941983#1" to="-155875852#0" type="autonomous_car" />
    <trip id="31" depart="31.00" from="-175562938#0" to="-173942329#0" type="autonomous_car" />
    <trip id="32" depart="32.00" from="-173941788#2" to="557161307#1" type="gasoline_car" />
    <trip id="33" depart="33.00" from="278557251" to="-175562938#0" type="gasoline_car" />
    <trip id="34" depart="34.00" from="173941241" to="-557160722#2" type="autonomous_car" />
    <trip id="35" depart="35.00" from="557160722#2" to="-67792293#1" type="gasoline_car" />
    <trip id="36" depart="36.00" from="-173942253" to="-173942067#3" type="gasoline_car" />
    <trip id="37" depart="37.00" from="170841497#4" to="-173942131" type="gasoline_car" />
    <trip id="38" depart="38.00" from="170844796#2" to="557160705" type="gasoline_car" />
    <trip id="39" depart="39.00" from="-557160738" to="-173941867" type="gasoline_car" />
    <trip id="40" depart="40.00" from="67792329#1" to="155875886" type="autonomous_car" />
    <trip id="41" depart="41.00" from="-170841497#6" to="-155884463#1" type="gasoline_car" />
    <trip id="42" depart="42.00" from="-170844796#2" to="173941109#2" type="gasoline_car" />
    <trip id="43" depart="43.00" from="174274266#4" to="-557161306#0" type="autonomous_car" />
    <trip id="44" depart="44.00" from="-155884531#2" to="-557160705" type="autonomous_car" />
    <trip id="45" depart="45.00" from="67792329#0" to="155884513#2" type="gasoline_car" />
    <trip id="46" depart="46.00" from="67792292" to="278539519#0" type="gasoline_car" />
    <trip id="47" depart="47.00" from="-155875687#0" to="173942067#1" type="gasoline_car" />
    <trip id="48" depart="48.00" from="173941655" to="155884531#2" type="gasoline_car" />
    <trip id="49" depart="49.00" from="-173942329#0" to="173941139#2" type="gasoline_car" />
    <trip id="50" depart="50.00" from="-170844796#3" to="-557161309" type="gasoline_car" />
    <trip id="51" depart="51.00" from="-630498032" to="557161311" type="autonomous_car" />
    <trip id="52" depart="52.00" from="278557251" to="-173942131" type="gasoline_car" />
    <trip id="53" depart="53.00" from="155875802#1" to="-173941363" type="gasoline_car" />
    <trip id="54" depart="54.00" from="557160722#2" to="278539539" type="gasoline_car" />
    <trip id="55" depart="55.00" from="-174274266#3" to="173941139#1" type="gasoline_car" />
    <trip id="56" depart="56.00" from="173941019#1" to="-173941109#2" type="gasoline_car" />
    <trip id="57" depart="57.00" from="173942355" to="155884531#3" type="gasoline_car" />
    <trip id="58" depart="58.00" from="174032654#0" to="155884531#0" type="gasoline_car" />
    <trip id="59" depart="59.00" from="-155875663#0" to="-197805110#0" type="gasoline_car" />
    <trip id="60" depart="60.00" from="-155875687#3" to="557160752#4" type="gasoline_car" />
    <trip id="61" depart="61.00" from="-174274266#6" to="-155884531#0" type="gasoline_car" />
    <trip id="62" depart="62.00" from="-170841497#4" to="155875687#0" type="gasoline_car" />
    <trip id="63" depart="63.00" from="-155884542#1" to="173942354" type="gasoline_car" />
    <trip id="64" depart="64.00" from="173942390" to="-173941017#0" type="autonomous_car" />
    <trip id="65" depart="65.00" from="155875663#1" to="170841497#1" type="gasoline_car" />
    <trip id="66" depart="66.00" from="-173942253" to="278557250" type="gasoline_car" />
    <trip id="67" depart="67.00" from="-557161307#0" to="-173941791#0" type="gasoline_car" />
    <trip id="68" depart="68.00" from="155884531#3" to="173942069" type="gasoline_car" />
    <trip id="69" depart="69.00" from="67792329#0" to="173941234#0" type="gasoline_car" />
    <trip id="70" depart="70.00" from="-557161311" to="155884463#0" type="gasoline_car" />
    <trip id="71" depart="71.00" from="-170844796#8" to="-173941896#0" type="gasoline_car" />
    <trip id="72" depart="72.00" from="-226166368" to="170844796#4" type="gasoline_car" />
    <trip id="73" depart="73.00" from="-173941983#1" to="-173941888" type="gasoline_car" />
    <trip id="74" depart="74.00" from="-155884542#1" to="173941109#3" type="gasoline_car" />
    <trip id="75" depart="75.00" from="-173941983#1" to="557160713" type="gasoline_car" />
    <trip id="76" depart="76.00" from="278539472" to="-155884542#1" type="gasoline_car" />
    <trip id="77" depart="77.00" from="-173942067#0" to="173941420" type="gasoline_car" />
    <trip id="78" depart="78.00" from="-173941791#0" to="-173941019#1" type="gasoline_car" />
    <trip id="79" depart="79.00" from="557160752#6" to="170841497#7" type="gasoline_car" />
    <trip id="80" depart="80.00" from="155875663#0" to="174274266#1" type="gasoline_car" />
    <trip id="81" depart="81.00" from="-170841497#8" to="-557161307#2" type="gasoline_car" />
    <trip id="82" depart="82.00" from="-557161307#0" to="-67792293#4" type="gasoline_car" />
    <trip id="83" depart="83.00" from="173942069" to="173941529" type="gasoline_car" />
    <trip id="84" depart="84.00" from="67792306#1" to="-170841497#8" type="gasoline_car" />
    <trip id="85" depart="85.00" from="-557160752#0" to="-226166368" type="gasoline_car" />
    <trip id="86" depart="86.00" from="278539519#0" to="-173942078#0" type="gasoline_car" />
    <trip id="87" depart="87.00" from="-173941450" to="-557192858#1" type="autonomous_car" />
    <trip id="88" depart="88.00" from="-557161306#0" to="-174032652#1" type="gasoline_car" />
    <trip id="89" depart="89.00" from="-173942078#0" to="557160752#2" type="gasoline_car" />
    <trip id="90" depart="90.00" from="170841497#1" to="-155884472" type="gasoline_car" />
    <trip id="91" depart="91.00" from="67792329#1" to="251788747#1" type="gasoline_car" />
    <trip id="92" depart="92.00" from="630498032" to="557160752#3" type="gasoline_car" />
    <trip id="93" depart="93.00" from="155875687#0" to="-173941791#0" type="gasoline_car" />
    <trip id="94" depart="94.00" from="-557160738" to="-155884531#0" type="gasoline_car" />
    <trip id="95" depart="95.00" from="-557160701" to="67792306#1" type="gasoline_car" />
    <trip id="96" depart="96.00" from="-173942253" to="174274266#1" type="gasoline_car" />
    <trip id="97" depart="97.00" from="-630498032" to="-557161306#0" type="gasoline_car" />
    <trip id="98" depart="98.00" from="557162416" to="67792329#0" type="gasoline_car" />
    <trip id="99" depart="99.00" from="170841497#2" to="173942067#0" type="gasoline_car" />
    </routes>