<?xml version='1.0' encoding='utf-8'?>
<routes xmlns:xsi="http://www.w3.org/2001/XMLSchema-instance" xsi:noNamespaceSchemaLocation="http://sumo.dlr.de/xsd/routes_file.xsd">
    <trip id="0" depart="0.00" from="173941139#1" to="-155875802#0" type="gasoline_car" />
    <trip id="1" depart="1.00" from="-174032652#0" to="-173941896#0" type="gasoline_car" />
    <trip id="2" depart="2.00" from="173942126#0" to="173941546#0" type="gasoline_car" />
    <trip id="3" depart="3.00" from="496906169#1" to="-170841497#4" type="gasoline_car" />
    <trip id="4" depart="4.00" from="-557161306#0" to="-155875802#1" type="gasoline_car" />
    <trip id="5" depart="5.00" from="-173941867" to="155875852#0" type="gasoline_car" />
    <trip id="6" depart="6.00" from="-155875802#0" to="-173941546#0" type="gasoline_car" />
    <trip id="7" depart="7.00" from="173941234#0" to="155884542#1" type="gasoline_car" />
    <trip id="8" depart="8.00" from="-173941888" to="170844796#4" type="gasoline_car" />
    <trip id="9" depart="9.00" from="175562938#0" to="-155875663#2" type="gasoline_car" />
    <trip id="10" depart="10.00" from="-226166368" to="-173941109#3" type="gasoline_car" />
    <trip id="11" depart="11.00" from="557162416" to="-222319957#1" type="gasoline_car" />
    <trip id="12" depart="12.00" from="-170841497#6" to="-170841497#8" type="gasoline_car" />
    <trip id="13" depart="13.00" from="155884531#2" to="67792293#1" type="gasoline_car" />
    <trip id="14" depart="14.00" from="-557160701" to="170841497#1" type="gasoline_car" />
    <trip id="15" depart="15.00" from="222319957#0" to="173941082#2" type="autonomous_car" />
    <trip id="16" depart="16.00" from="278539519#0" to="170844796#0" type="gasoline_car" />
    <trip id="17" depart="17.00" from="173941896#0" to="-155884463#0" type="gasoline_car" />
    <trip id="18" depart="18.00" from="-173941896#1" to="-174032654#1" type="gasoline_car" />
    <trip id="19" depart="19.00" from="-170841497#2" to="-173941985#0" type="gasoline_car" />
    <trip id="20" depart="20.00" from="-170841497#9" to="-174032652#1" type="gasoline_car" />
    <trip id="21" depart="21.00" from="173941139#0" to="-496906168#0" type="gasoline_car" />
    <trip id="22" depart="22.00" from="-496906168#2" to="-173941788#2" type="gasoline_car" />
    <trip id="23" depart="23.00" from="-173942329#0" to="557160752#6" type="gasoline_car" />
    <trip id="24" depart="24.00" from="173941152#1" to="173941019#1" type="gasoline_car" />
    <trip id="25" depart="25.00" from="-173941234#1" to="173942069" type="gasoline_car" />
    <trip id="26" depart="26.00" from="-173941139#2" to="-557160705" type="gasoline_car" />
    <trip id="27" depart="27.00" from="67792308" to="173941139#1" type="gasoline_car" />
    <trip id="28" depart="28.00" from="170841497#2" to="173941779" type="gasoline_car" />
    <trip id="29" depart="29.00" from="251788755#1" to="174032652#4" type="gasoline_car" />
    <trip id="30" depart="30.00" from="-173941983#1" to="-155875852#0" type="gasoline_car" />
    <trip id="31" depart="31.00" from="-175562938#0" to="-173942329#0" type="gasoline_car" />
    <trip id="32" depart="32.00" from="-173941788#2" to="557161307#1" type="gasoline_car" />
    <trip id="33" depart="33.00" from="278557251" to="-175562938#0" type="gasoline_car" />
    <trip id="34" depart="34.00" from="173941241" to="-557160722#2" type="gasoline_car" />
    <trip id="35" depart="35.00" from="557160722#2" to="-67792293#1" type="gasoline_car" />
    <trip id="36" depart="36.00" from="-173942253" to="-173942067#3" type="gasoline_car" />
    <trip id="37" depart="37.00" from="170841497#4" to="-173942131" type="gasoline_car" />
    <trip id="38" depart="38.00" from="170844796#2" to="557160705" type="gasoline_car" />
    <trip id="39" depart="39.00" from="-557160738" to="-173941867" type="gasoline_car" />
    <trip id="40" depart="40.00" from="67792329#1" to="155875886" type="autonomous_car" />
    <trip id="41" depart="41.00" from="-170841497#6" to="-155884463#1" type="gasoline_car" />
    <trip id="42" depart="42.00" from="-170844796#2" to="173941109#2" type="gasoline_car" />
    <trip id="43" depart="43.00" from="174274266#4" to="-557161306#0" type="gasoline_car" />
    <trip id="44" depart="44.00" from="-155884531#2" to="-557160705" type="gasoline_car" />
    <trip id="45" depart="45.00" from="67792329#0" to="155884513#2" type="gasoline_car" />
    <trip id="46" depart="46.00" from="67792292" to="278539519#0" type="autonomous_car" />
    <trip id="47" depart="47.00" from="-155875687#0" to="173942067#1" type="gasoline_car" />
    <trip id="48" depart="48.00" from="173941655" to="155884531#2" type="gasoline_car" />
    <trip id="49" depart="49.00" from="-173942329#0" to="173941139#2" type="autonomous_car" />
    <trip id="50" depart="50.00" from="-170844796#3" to="-557161309" type="gasoline_car" />
    <trip id="51" depart="51.00" from="-630498032" to="557161311" type="gasoline_car" />
    <trip id="52" depart="52.00" from="278557251" to="-173942131" type="gasoline_car" />
    <trip id="53" depart="53.00" from="155875802#1" to="-173941363" type="gasoline_car" />
    <trip id="54" depart="54.00" from="557160722#2" to="278539539" type="gasoline_car" />
    <trip id="55" depart="55.00" from="-174274266#3" to="173941139#1" type="autonomous_car" />
    <trip id="56" depart="56.00" from="173941019#1" to="-173941109#2" type="gasoline_car" />
    <trip id="57" depart="57.00" from="173942355" to="155884531#3" type="gasoline_car" />
    <trip id="58" depart="58.00" from="174032654#0" to="155884531#0" type="gasoline_car" />
    <trip id="59" depart="59.00" from="-155875663#0" to="-197805110#0" type="gasoline_car" />
    <trip id="60" depart="60.00" from="-155875687#3" to="557160752#4" type="autonomous_car" />
    <trip id="61" depart="61.00" from="-174274266#6" to="-155884531#0" type="gasoline_car" />
    <trip id="62" depart="62.00" from="-170841497#4" to="155875687#0" type="autonomous_car" />
    <trip id="63" depart="63.00" from="-155884542#1" to="173942354" type="gasoline_car" />
    <trip id="64" depart="64.00" from="173942390" to="-173941017#0" type="gasoline_car" />
    <trip id="65" depart="65.00" from="155875663#1" to="170841497#1" type="gasoline_car" />
    <trip id="66" depart="66.00" from="-173942253" to="278557250" type="gasoline_car" />
    <trip id="67" depart="67.00" from="-557161307#0" to="-173941791#0" type="gasoline_car" />
    <trip id="68" depart="68.00" from="155884531#3" to="173942069" type="gasoline_car" />
    <trip id="69" depart="69.00" from="67792329#0" to="173941234#0" type="gasoline_car" />
    <trip id="70" depart="70.00" from="-557161311" to="155884463#0" type="gasoline_car" />
    <trip id="71" depart="71.00" from="-170844796#8" to="-173941896#0" type="autonomous_car" />
    <trip id="72" depart="72.00" from="-226166368" to="170844796#4" type="gasoline_car" />
    <trip id="73" depart="73.00" from="-173941983#1" to="-173941888" type="gasoline_car" />
    <trip id="74" depart="74.00" from="-155884542#1" to="173941109#3" type="gasoline_car" />
    <trip id="75" depart="75.00" from="-173941983#1" to="557160713" type="gasoline_car" />
    <trip id="76" depart="76.00" from="278539472" to="-155884542#1" type="gasoline_car" />
    <trip id="77" depart="77.00" from="-173942067#0" to="173941420" type="gasoline_car" />
    <trip id="78" depart="78.00" from="-173941791#0" to="-173941019#1" type="gasoline_car" />
    <trip id="79" depart="79.00" from="557160752#6" to="170841497#7" type="gasoline_car" />
    <trip id="80" depart="80.00" from="155875663#0" to="174274266#1" type="gasoline_car" />
    <trip id="81" depart="81.00" from="-170841497#8" to="-557161307#2" type="gasoline_car" />
    <trip id="82" depart="82.00" from="-557161307#0" to="-67792293#4" type="gasoline_car" />
    <trip id="83" depart="83.00" from="173942069" to="173941529" type="gasoline_car" />
    <trip id="84" depart="84.00" from="67792306#1" to="-170841497#8" type="gasoline_car" />
    <trip id="85" depart="85.00" from="-557160752#0" to="-226166368" type="gasoline_car" />
    <trip id="86" depart="86.00" from="278539519#0" to="-173942078#0" type="gasoline_car" />
    <trip id="87" depart="87.00" from="-173941450" to="-557192858#1" type="gasoline_car" />
    <trip id="88" depart="88.00" from="-557161306#0" to="-174032652#1" type="gasoline_car" />
    <trip id="89" depart="89.00" from="-173942078#0" to="557160752#2" type="gasoline_car" />
    <trip id="90" depart="90.00" from="170841497#1" to="-155884472" type="gasoline_car" />
    <trip id="91" depart="91.00" from="67792329#1" to="251788747#1" type="gasoline_car" />
    <trip id="92" depart="92.00" from="630498032" to="557160752#3" type="gasoline_car" />
    <trip id="93" depart="93.00" from="155875687#0" to="-173941791#0" type="gasoline_car" />
    <trip id="94" depart="94.00" from="-557160738" to="-155884531#0" type="gasoline_car" />
    <trip id="95" depart="95.00" from="-557160701" to="67792306#1" type="gasoline_car" />
    <trip id="96" depart="96.00" from="-173942253" to="174274266#1" type="gasoline_car" />
    <trip id="97" depart="97.00" from="-630498032" to="-557161306#0" type="autonomous_car" />
    <trip id="98" depart="98.00" from="557162416" to="67792329#0" type="gasoline_car" />
    <trip id="99" depart="99.00" from="170841497#2" to="173942067#0" type="gasoline_car" />
    <trip id="100" depart="100.00" from="-173941109#3" to="-174274266#3" type="gasoline_car" />
    <trip id="101" depart="101.00" from="630498032" to="170844796#0" type="gasoline_car" />
    <trip id="102" depart="102.00" from="155884542#0" to="173942253" type="gasoline_car" />
    <trip id="103" depart="103.00" from="-155884513#2" to="170844796#2" type="gasoline_car" />
    <trip id="104" depart="104.00" from="155875852#0" to="251788760" type="gasoline_car" />
    <trip id="105" depart="105.00" from="-170841497#2" to="-173941419" type="gasoline_car" />
    <trip id="106" depart="106.00" from="170844796#7" to="173941529" type="gasoline_car" />
    <trip id="107" depart="107.00" from="-173941985#2" to="-170844796#7" type="gasoline_car" />
    <trip id="108" depart="108.00" from="496906169#1" to="-173942067#3" type="gasoline_car" />
    <trip id="109" depart="109.00" from="170844796#7" to="173941082#2" type="gasoline_car" />
    <trip id="110" depart="110.00" from="-557160752#6" to="170844796#2" type="gasoline_car" />
    <trip id="111" depart="111.00" from="155884472" to="557160752#6" type="autonomous_car" />
    <trip id="112" depart="112.00" from="-173941779" to="173941985#2" type="autonomous_car" />
    <trip id="113" depart="113.00" from="-173942067#0" to="-557160722#2" type="gasoline_car" />
    <trip id="114" depart="114.00" from="173941457" to="-174274266#4" type="autonomous_car" />
    <trip id="115" depart="115.00" from="-175562938#1" to="173942329#0" type="gasoline_car" />
    <trip id="116" depart="116.00" from="-170841497#0" to="-67792293#0" type="gasoline_car" />
    <trip id="117" depart="117.00" from="67792329#1" to="67792329#0" type="gasoline_car" />
    <trip id="118" depart="118.00" from="-170841497#0" to="-173941791#0" type="gasoline_car" />
    <trip id="119" depart="119.00" from="-173942253" to="557160752#5" type="gasoline_car" />
    <trip id="120" depart="120.00" from="496906168#0" to="496906168#0" type="gasoline_car" />
    <trip id="121" depart="121.00" from="-496906168#2" to="-173941139#0" type="autonomous_car" />
    <trip id="122" depart="122.00" from="173941019#2" to="67792307" type="gasoline_car" />
    <trip id="123" depart="123.00" from="173941241" to="-155875663#2" type="gasoline_car" />
    <trip id="124" depart="124.00" from="197805110#1" to="-174274266#3" type="gasoline_car" />
    <trip id="125" depart="125.00" from="173941368#1" to="557161306#0" type="autonomous_car" />
    <trip id="126" depart="126.00" from="-173941019#1" to="-170844796#6" type="gasoline_car" />
    <trip id="127" depart="127.00" from="-170844796#1" to="170841497#10" type="gasoline_car" />
    <trip id="128" depart="128.00" from="-173942355" to="173941019#0" type="gasoline_car" />
    <trip id="129" depart="129.00" from="173942067#0" to="-173941779" type="gasoline_car" />
    <trip id="130" depart="130.00" from="173941109#4" to="-173942253" type="gasoline_car" />
    <trip id="131" depart="131.00" from="155875687#1" to="557160713" type="gasoline_car" />
    <trip id="132" depart="132.00" from="251788755#2" to="-170841497#6" type="gasoline_car" />
    <trip id="133" depart="133.00" from="-557161307#0" to="-174032652#0" type="gasoline_car" />
    <trip id="134" depart="134.00" from="-155875663#1" to="174032652#1" type="gasoline_car" />
    <trip id="135" depart="135.00" from="173941139#0" to="-173942131" type="gasoline_car" />
    <trip id="136" depart="136.00" from="173942126#1" to="170841497#1" type="autonomous_car" />
    <trip id="137" depart="137.00" from="-557161307#1" to="-155875663#3" type="gasoline_car" />
    <trip id="138" depart="138.00" from="-170841497#1" to="496906168#1" type="gasoline_car" />
    <trip id="139" depart="139.00" from="557160713" to="155884542#1" type="gasoline_car" />
    <trip id="140" depart="140.00" from="-173941109#0" to="-173941017#0" type="gasoline_car" />
    <trip id="141" depart="141.00" from="-174274266#7" to="557160706" type="autonomous_car" />
    <trip id="142" depart="142.00" from="174274266#5" to="278539519#0" type="gasoline_car" />
    <trip id="143" depart="143.00" from="557160706" to="-173941788#2" type="gasoline_car" />
    <trip id="144" depart="144.00" from="-173942078#0" to="-170844796#0" type="gasoline_car" />
    <trip id="145" depart="145.00" from="174032654#0" to="496906168#1" type="gasoline_car" />
    <trip id="146" depart="146.00" from="-557160752#1" to="173941082#2" type="gasoline_car" />
    <trip id="147" depart="147.00" from="-173941109#3" to="557160752#4" type="gasoline_car" />
    <trip id="148" depart="148.00" from="278539519#1" to="67792293#3" type="gasoline_car" />
    <trip id="149" depart="149.00" from="175562938#1" to="496906168#0" type="autonomous_car" />
    <trip id="150" depart="150.00" from="-155875802#0" to="173942126#0" type="gasoline_car" />
    <trip id="151" depart="151.00" from="-197805110#3" to="557160752#4" type="gasoline_car" />
    <trip id="152" depart="152.00" from="174274271#1" to="278539519#1" type="gasoline_car" />
    <trip id="153" depart="153.00" from="175562938#1" to="-173942329#0" type="gasoline_car" />
    <trip id="154" depart="154.00" from="174274266#2" to="-170844796#2" type="gasoline_car" />
    <trip id="155" depart="155.00" from="278557250" to="278539472" type="gasoline_car" />
    <trip id="156" depart="156.00" from="-173941888" to="197805110#1" type="gasoline_car" />
    <trip id="157" depart="157.00" from="-67792293#1" to="-174274266#6" type="gasoline_car" />
    <trip id="158" depart="158.00" from="174274266#5" to="-173941896#1" type="gasoline_car" />
    <trip id="159" depart="159.00" from="-155875797" to="-173941457" type="gasoline_car" />
    <trip id="160" depart="160.00" from="-197805110#2" to="278539519#1" type="gasoline_car" />
    <trip id="161" depart="161.00" from="623710415" to="-174032652#1" type="gasoline_car" />
    <trip id="162" depart="162.00" from="173941139#2" to="-557160738" type="gasoline_car" />
    <trip id="163" depart="163.00" from="67792306#0" to="155884531#2" type="gasoline_car" />
    <trip id="164" depart="164.00" from="557161306#0" to="-170844796#4" type="gasoline_car" />
    <trip id="165" depart="165.00" from="67792292" to="-173941275" type="gasoline_car" />
    <trip id="166" depart="166.00" from="557192858#1" to="-173942253" type="gasoline_car" />
    <trip id="167" depart="167.00" from="-170844796#2" to="-557161309" type="gasoline_car" />
    <trip id="168" depart="168.00" from="173942069" to="-175562938#0" type="gasoline_car" />
    <trip id="169" depart="169.00" from="173941019#0" to="155884438#0" type="gasoline_car" />
    <trip id="170" depart="170.00" from="-557160707" to="170841497#9" type="gasoline_car" />
    <trip id="171" depart="171.00" from="-173942126#0" to="173941896#1" type="gasoline_car" />
    <trip id="172" depart="172.00" from="-155875663#0" to="557160752#2" type="gasoline_car" />
    <trip id="173" depart="173.00" from="155884531#2" to="173942067#0" type="gasoline_car" />
    <trip id="174" depart="174.00" from="173942126#2" to="173941457" type="gasoline_car" />
    <trip id="175" depart="175.00" from="-496906168#0" to="-155884542#1" type="gasoline_car" />
    <trip id="176" depart="176.00" from="173941368#1" to="-197805110#3" type="gasoline_car" />
    <trip id="177" depart="177.00" from="-175562938#0" to="251788755#3" type="gasoline_car" />
    <trip id="178" depart="178.00" from="173942067#0" to="-174274266#4" type="autonomous_car" />
    <trip id="179" depart="179.00" from="-174274266#7" to="-557160752#2" type="gasoline_car" />
    <trip id="180" depart="180.00" from="-557160752#0" to="-174274266#2" type="gasoline_car" />
    <trip id="181" depart="181.00" from="-173941017#0" to="-557161306#0" type="gasoline_car" />
    <trip id="182" depart="182.00" from="557161306#1" to="173941546#0" type="gasoline_car" />
    <trip id="183" depart="183.00" from="557160707" to="173941082#1" type="gasoline_car" />
    <trip id="184" depart="184.00" from="-174274266#4" to="170841497#0" type="gasoline_car" />
    <trip id="185" depart="185.00" from="-155875663#0" to="-174032654#0" type="gasoline_car" />
    <trip id="186" depart="186.00" from="-557161307#2" to="170844796#1" type="gasoline_car" />
    <trip id="187" depart="187.00" from="173941241" to="-67792293#4" type="gasoline_car" />
    <trip id="188" depart="188.00" from="-557162416" to="-173941791#0" type="gasoline_car" />
    <trip id="189" depart="189.00" from="155875663#0" to="557160707" type="gasoline_car" />
    <trip id="190" depart="190.00" from="174274266#5" to="-173941234#0" type="gasoline_car" />
    <trip id="191" depart="191.00" from="-170841497#3" to="155884438#1" type="gasoline_car" />
    <trip id="192" depart="192.00" from="173941109#4" to="-222319957#1" type="gasoline_car" />
    <trip id="193" depart="193.00" from="197805110#1" to="173942329#0" type="gasoline_car" />
    <trip id="194" depart="194.00" from="173941457" to="-173941896#0" type="autonomous_car" />
    <trip id="195" depart="195.00" from="-173941546#0" to="-155875797" type="gasoline_car" />
    <trip id="196" depart="196.00" from="-173942067#3" to="155875663#0" type="gasoline_car" />
    <trip id="197" depart="197.00" from="251788758" to="-170841497#0" type="autonomous_car" />
    <trip id="198" depart="198.00" from="-557160752#4" to="173941109#3" type="gasoline_car" />
    <trip id="199" depart="199.00" from="-173941457" to="173941829" type="gasoline_car" />
    <trip id="200" depart="200.00" from="155875687#3" to="-173942067#2" type="gasoline_car" />
    <trip id="201" depart="201.00" from="173941241" to="-155875663#2" type="gasoline_car" />
    <trip id="202" depart="202.00" from="173942329#0" to="174032652#1" type="gasoline_car" />
    <trip id="203" depart="203.00" from="-170844796#1" to="-557161307#0" type="gasoline_car" />
    <trip id="204" depart="204.00" from="-173941275" to="557162416" type="gasoline_car" />
    <trip id="205" depart="205.00" from="155884463#0" to="-155884472" type="gasoline_car" />
    <trip id="206" depart="206.00" from="-173942078#0" to="251788755#3" type="gasoline_car" />
    <trip id="207" depart="207.00" from="-67792293#0" to="174274266#7" type="gasoline_car" />
    <trip id="208" depart="208.00" from="173941419" to="67792307" type="gasoline_car" />
    <trip id="209" depart="209.00" from="170844796#7" to="557161308" type="gasoline_car" />
    <trip id="210" depart="210.00" from="496906169#1" to="173941082#0" type="gasoline_car" />
    <trip id="211" depart="211.00" from="173942067#0" to="155875852#0" type="gasoline_car" />
    <trip id="212" depart="212.00" from="222319957#1" to="170841497#0" type="gasoline_car" />
    <trip id="213" depart="213.00" from="557160705" to="173942126#2" type="gasoline_car" />
    <trip id="214" depart="214.00" from="155875663#0" to="-173942126#2" type="autonomous_car" />
    <trip id="215" depart="215.00" from="-173942067#3" to="173941139#1" type="gasoline_car" />
    <trip id="216" depart="216.00" from="173942390" to="155884463#1" type="gasoline_car" />
    <trip id="217" depart="217.00" from="173941109#2" to="-173942355" type="gasoline_car" />
    <trip id="218" depart="218.00" from="-170841497#10" to="-174032654#0" type="gasoline_car" />
    <trip id="219" depart="219.00" from="-173942341" to="-175588204" type="gasoline_car" />
    <trip id="220" depart="220.00" from="155884531#3" to="-173941082#0" type="gasoline_car" />
    <trip id="221" depart="221.00" from="-173941985#0" to="173941791#0" type="gasoline_car" />
    <trip id="222" depart="222.00" from="173941896#1" to="-155884531#2" type="gasoline_car" />
    <trip id="223" depart="223.00" from="-557160752#2" to="155884542#0" type="gasoline_car" />
    <trip id="224" depart="224.00" from="-557160752#5" to="-173941788#0" type="autonomous_car" />
    <trip id="225" depart="225.00" from="-557160752#6" to="557160713" type="gasoline_car" />
    <trip id="226" depart="226.00" from="170844796#2" to="173941829" type="gasoline_car" />
    <trip id="227" depart="227.00" from="-557160705" to="-155875663#2" type="gasoline_car" />
    <trip id="228" depart="228.00" from="-278539539" to="173942329#1" type="gasoline_car" />
    <trip id="229" depart="229.00" from="251788760" to="557161311" type="gasoline_car" />
    <trip id="230" depart="230.00" from="-557160752#6" to="173942253" type="gasoline_car" />
    <trip id="231" depart="231.00" from="155884542#1" to="173941017#0" type="gasoline_car" />
    <trip id="232" depart="232.00" from="-173941888" to="-173941867" type="gasoline_car" />
    <trip id="233" depart="233.00" from="-557161309" to="-155875802#1" type="gasoline_car" />
    <trip id="234" depart="234.00" from="-222319957#1" to="173941546#1" type="gasoline_car" />
    <trip id="235" depart="235.00" from="-557160752#1" to="-173941152#0" type="gasoline_car" />
    <trip id="236" depart="236.00" from="-67792329#0" to="-173941017#0" type="gasoline_car" />
    <trip id="237" depart="237.00" from="173941109#0" to="-155875802#0" type="gasoline_car" />
    <trip id="238" depart="238.00" from="-557160722#1" to="170841497#5" type="gasoline_car" />
    <trip id="239" depart="239.00" from="-155875802#0" to="173941139#2" type="autonomous_car" />
    <trip id="240" depart="240.00" from="-173941019#2" to="-67792293#3" type="gasoline_car" />
    <trip id="241" depart="241.00" from="-155884472" to="-557160701" type="autonomous_car" />
    <trip id="242" depart="242.00" from="-173941791#0" to="-197805110#1" type="gasoline_car" />
    <trip id="243" depart="243.00" from="173942355" to="-557160705" type="gasoline_car" />
    <trip id="244" depart="244.00" from="173942329#0" to="222319957#1" type="gasoline_car" />
    <trip id="245" depart="245.00" from="-173942078#1" to="-170841497#2" type="gasoline_car" />
    <trip id="246" depart="246.00" from="-155875687#3" to="155884531#3" type="gasoline_car" />
    <trip id="247" depart="247.00" from="67792329#1" to="-278539519#2" type="gasoline_car" />
    <trip id="248" depart="248.00" from="173941234#0" to="174032654#1" type="gasoline_car" />
    <trip id="249" depart="249.00" from="173941234#1" to="173942329#1" type="gasoline_car" />
    <trip id="250" depart="250.00" from="557161308" to="-173941546#0" type="gasoline_car" />
    <trip id="251" depart="251.00" from="-155875687#3" to="-173941109#2" type="gasoline_car" />
    <trip id="252" depart="252.00" from="-170844796#9" to="173941420" type="gasoline_car" />
    <trip id="253" depart="253.00" from="170841497#5" to="-173941867" type="gasoline_car" />
    <trip id="254" depart="254.00" from="173941867" to="174032652#0" type="gasoline_car" />
    <trip id="255" depart="255.00" from="-173941234#0" to="173941019#1" type="gasoline_car" />
    <trip id="256" depart="256.00" from="173942253" to="-170844796#4" type="gasoline_car" />
    <trip id="257" depart="257.00" from="197805110#2" to="623710415" type="gasoline_car" />
    <trip id="258" depart="258.00" from="-170844796#2" to="-155875802#0" type="gasoline_car" />
    <trip id="259" depart="259.00" from="557162416" to="-557160722#2" type="gasoline_car" />
    <trip id="260" depart="260.00" from="173941985#2" to="-170841497#1" type="autonomous_car" />
    <trip id="261" depart="261.00" from="173941788#2" to="173941109#2" type="gasoline_car" />
    <trip id="262" depart="262.00" from="-170844796#0" to="174032652#2" type="gasoline_car" />
    <trip id="263" depart="263.00" from="251788758" to="170844796#9" type="autonomous_car" />
    <trip id="264" depart="264.00" from="-170844796#8" to="67792306#1" type="gasoline_car" />
    <trip id="265" depart="265.00" from="174032654#1" to="-278539519#1" type="gasoline_car" />
    <trip id="266" depart="266.00" from="-557161307#1" to="-496906168#2" type="gasoline_car" />
    <trip id="267" depart="267.00" from="155875852#1" to="-269028505" type="autonomous_car" />
    <trip id="268" depart="268.00" from="251788758" to="197805110#3" type="gasoline_car" />
    <trip id="269" depart="269.00" from="173941139#0" to="222319957#0" type="gasoline_car" />
    <trip id="270" depart="270.00" from="173941896#1" to="-557161309" type="gasoline_car" />
    <trip id="271" depart="271.00" from="173942078#1" to="623710415" type="autonomous_car" />
    <trip id="272" depart="272.00" from="-173942341" to="175562938#0" type="gasoline_car" />
    <trip id="273" depart="273.00" from="155884531#2" to="155875663#3" type="gasoline_car" />
    <trip id="274" depart="274.00" from="-557161309" to="173942078#0" type="gasoline_car" />
    <trip id="275" depart="275.00" from="-173942329#0" to="251788760" type="gasoline_car" />
    <trip id="276" depart="276.00" from="222319957#1" to="-170841497#4" type="gasoline_car" />
    <trip id="277" depart="277.00" from="496906168#0" to="-173942067#2" type="gasoline_car" />
    <trip id="278" depart="278.00" from="-67792293#4" to="173941019#2" type="gasoline_car" />
    <trip id="279" depart="279.00" from="-557160701" to="-155875802#1" type="autonomous_car" />
    <trip id="280" depart="280.00" from="251788758" to="-173941368#0" type="gasoline_car" />
    <trip id="281" depart="281.00" from="-173941791#0" to="174274266#6" type="gasoline_car" />
    <trip id="282" depart="282.00" from="-226166368" to="496906168#0" type="autonomous_car" />
    <trip id="283" depart="283.00" from="173941888" to="-174032652#0" type="autonomous_car" />
    <trip id="284" depart="284.00" from="-155875663#3" to="557161308" type="gasoline_car" />
    <trip id="285" depart="285.00" from="-170841497#4" to="173942067#1" type="gasoline_car" />
    <trip id="286" depart="286.00" from="155875687#1" to="173942341" type="gasoline_car" />
    <trip id="287" depart="287.00" from="173941788#2" to="173941152#1" type="gasoline_car" />
    <trip id="288" depart="288.00" from="155875687#2" to="174274266#4" type="gasoline_car" />
    <trip id="289" depart="289.00" from="-170841497#6" to="-173941888" type="gasoline_car" />
    <trip id="290" depart="290.00" from="173941788#2" to="-174274266#6" type="gasoline_car" />
    <trip id="291" depart="291.00" from="170844796#1" to="155875663#0" type="gasoline_car" />
    <trip id="292" depart="292.00" from="155884531#0" to="-557161307#0" type="autonomous_car" />
    <trip id="293" depart="293.00" from="173942131" to="-197805110#3" type="gasoline_car" />
    <trip id="294" depart="294.00" from="173941888" to="-173942341" type="gasoline_car" />
    <trip id="295" depart="295.00" from="-173942078#1" to="-170844796#7" type="gasoline_car" />
    <trip id="296" depart="296.00" from="-173941457" to="-170844796#7" type="gasoline_car" />
    <trip id="297" depart="297.00" from="155884531#2" to="173942355" type="gasoline_car" />
    <trip id="298" depart="298.00" from="-173941419" to="-173941829" type="gasoline_car" />
    <trip id="299" depart="299.00" from="155875687#0" to="173942067#2" type="gasoline_car" />
    <trip id="300" depart="300.00" from="67792293#3" to="155884472" type="gasoline_car" />
    <trip id="301" depart="301.00" from="-174032652#4" to="-170841497#9" type="gasoline_car" />
    <trip id="302" depart="302.00" from="-173941457" to="-173941896#1" type="gasoline_car" />
    <trip id="303" depart="303.00" from="-173941363" to="-155875687#1" type="gasoline_car" />
    <trip id="304" depart="304.00" from="155884531#1" to="-173942355" type="gasoline_car" />
    <trip id="305" depart="305.00" from="67792293#1" to="170841497#10" type="gasoline_car" />
    <trip id="306" depart="306.00" from="173941829" to="-170844796#9" type="gasoline_car" />
    <trip id="307" depart="307.00" from="278539539" to="155875687#2" type="gasoline_car" />
    <trip id="308" depart="308.00" from="278557250" to="170841497#8" type="gasoline_car" />
    <trip id="309" depart="309.00" from="-67792329#0" to="-557162416" type="gasoline_car" />
    <trip id="310" depart="310.00" from="-173941419" to="-155884472" type="gasoline_car" />
    <trip id="311" depart="311.00" from="557161306#1" to="155875663#1" type="gasoline_car" />
    <trip id="312" depart="312.00" from="197805110#3" to="-557160738" type="autonomous_car" />
    <trip id="313" depart="313.00" from="-170841497#0" to="173941109#3" type="gasoline_car" />
    <trip id="314" depart="314.00" from="-155884513#0" to="-173941109#1" type="gasoline_car" />