<configuration>
<input>
<net-file value="3gousen_new.net.xml"/>

</input>
<time>
<begin value="0"/>
<end value="1000"/>
</time>
</configuration>