<?xml version="1.0" encoding="UTF-8"?>

<!-- generated on 2025-07-17 20:48:13 by Eclipse SUMO netedit Version 1.23.1
<neteditConfiguration xmlns:xsi="http://www.w3.org/2001/XMLSchema-instance" xsi:noNamespaceSchemaLocation="http://sumo.dlr.de/xsd/neteditConfiguration.xsd">

    <input>
        <sumo-net-file value="C:\Users\81809\Documents\学校\大学院\授業\応用情報システム工学\GreenWave\config\3gousen_new.net.xml"/>
    </input>

    <output>
        <output-file value="C:\Users\81809\Documents\学校\大学院\授業\応用情報システム工学\GreenWave\config\3gousen_new.net.xml"/>
    </output>

    <processing>
        <geometry.min-radius.fix.railways value="false"/>
        <geometry.avoid-overlap value="false"/>
        <geometry.max-grade.fix value="false"/>
        <offset.disable-normalization value="true"/>
        <lefthand value="0"/>
    </processing>

    <junctions>
        <no-turnarounds value="true"/>
        <junctions.corner-detail value="5"/>
        <junctions.limit-turn-speed value="5.50"/>
        <rectangular-lane-cut value="0"/>
    </junctions>

    <pedestrian>
        <walkingareas value="0"/>
    </pedestrian>

</neteditConfiguration>
-->

<net version="1.20" junctionCornerDetail="5" limitTurnSpeed="5.50" avoidOverlap="0" xmlns:xsi="http://www.w3.org/2001/XMLSchema-instance" xsi:noNamespaceSchemaLocation="http://sumo.dlr.de/xsd/net_file.xsd">

    <location netOffset="-632404.04,-3729331.63" convBoundary="0.00,0.00,3272.08,3717.27" origBoundary="130.428860,33.694894,130.464486,33.728795" projParameter="+proj=utm +zone=52 +ellps=WGS84 +datum=WGS84 +units=m +no_defs"/>

    <type id="highway.footway" priority="1" numLanes="1" speed="2.78" allow="pedestrian" oneway="1" width="2.00"/>
    <type id="highway.path" priority="1" numLanes="1" speed="5.56" allow="pedestrian bicycle" oneway="0" width="2.00"/>
    <type id="highway.residential" priority="3" numLanes="1" speed="13.89" disallow="tram rail_urban rail rail_electric rail_fast ship container cable_car subway aircraft wheelchair scooter drone" oneway="0"/>
    <type id="highway.secondary" priority="11" numLanes="1" speed="27.78" disallow="tram rail_urban rail rail_electric rail_fast ship container cable_car subway aircraft wheelchair scooter drone" oneway="0"/>
    <type id="highway.service" priority="1" numLanes="1" speed="5.56" allow="pedestrian delivery bicycle" oneway="0"/>
    <type id="highway.steps" priority="1" numLanes="1" speed="1.39" allow="pedestrian" oneway="1" width="2.00"/>
    <type id="highway.tertiary" priority="10" numLanes="1" speed="22.22" disallow="tram rail_urban rail rail_electric rail_fast ship container cable_car subway aircraft wheelchair scooter drone" oneway="0"/>
    <type id="highway.track" priority="1" numLanes="1" speed="5.56" allow="pedestrian motorcycle moped bicycle" oneway="0"/>
    <type id="highway.trunk" priority="13" numLanes="2" speed="27.78" disallow="pedestrian bicycle tram rail_urban rail rail_electric rail_fast ship container cable_car subway aircraft wheelchair scooter drone" oneway="0"/>
    <type id="highway.unclassified" priority="4" numLanes="1" speed="13.89" disallow="tram rail_urban rail rail_electric rail_fast ship container cable_car subway aircraft wheelchair scooter drone" oneway="0"/>
    <type id="railway.rail" priority="20" numLanes="1" speed="44.44" allow="rail" oneway="1"/>

    <edge id=":1682305881_0" function="internal">
        <lane id=":1682305881_0_0" index="0" disallow="tram rail_urban rail rail_electric rail_fast ship container cable_car subway aircraft wheelchair scooter drone" speed="22.22" length="0.15" shape="1904.60,149.35 1904.51,149.47"/>
    </edge>
    <edge id=":1682305881_1" function="internal">
        <lane id=":1682305881_1_0" index="0" disallow="tram rail_urban rail rail_electric rail_fast ship container cable_car subway aircraft wheelchair scooter drone" speed="22.22" length="0.28" shape="1901.94,147.57 1902.11,147.34"/>
    </edge>
    <edge id=":1682306558_0" function="internal">
        <lane id=":1682306558_0_0" index="0" disallow="tram rail_urban rail rail_electric rail_fast ship container cable_car subway aircraft wheelchair scooter drone" speed="11.74" length="12.27" shape="1293.63,438.66 1290.62,437.08 1287.98,435.96 1285.26,435.54 1282.05,436.06"/>
    </edge>
    <edge id=":1682306558_1" function="internal">
        <lane id=":1682306558_1_0" index="0" disallow="tram rail_urban rail rail_electric rail_fast ship container cable_car subway aircraft wheelchair scooter drone" speed="7.62" length="16.65" shape="1293.63,438.66 1290.05,435.99 1288.87,432.93 1290.08,429.49 1293.69,425.67"/>
    </edge>
    <edge id=":1682306558_2" function="internal">
        <lane id=":1682306558_2_0" index="0" disallow="tram rail_urban rail rail_electric rail_fast ship container cable_car subway aircraft wheelchair scooter drone" speed="3.66" length="4.70" shape="1293.63,438.66 1293.07,437.32 1293.18,436.43 1293.97,435.98 1295.42,435.98"/>
    </edge>
    <edge id=":1682306558_3" function="internal">
        <lane id=":1682306558_3_0" index="0" disallow="tram rail_urban rail rail_electric rail_fast ship container cable_car subway aircraft wheelchair scooter drone" speed="5.92" length="9.51" shape="1295.20,428.59 1293.19,430.73 1292.56,432.68 1293.30,434.43 1295.42,435.98"/>
    </edge>
    <edge id=":1682306558_4" function="internal">
        <lane id=":1682306558_4_0" index="0" disallow="tram rail_urban rail rail_electric rail_fast ship container cable_car subway aircraft wheelchair scooter drone" speed="13.89" length="15.21" shape="1295.20,428.59 1292.20,430.91 1288.98,432.99 1285.59,434.74 1282.05,436.06"/>
    </edge>
    <edge id=":1682306558_5" function="internal">
        <lane id=":1682306558_5_0" index="0" disallow="tram rail_urban rail rail_electric rail_fast ship container cable_car subway aircraft wheelchair scooter drone" speed="3.68" length="1.36" shape="1295.20,428.59 1293.85,428.43"/>
    </edge>
    <edge id=":1682306558_9" function="internal">
        <lane id=":1682306558_9_0" index="0" disallow="tram rail_urban rail rail_electric rail_fast ship container cable_car subway aircraft wheelchair scooter drone" speed="3.68" length="3.43" shape="1293.85,428.43 1293.73,428.42 1292.99,427.88 1292.98,426.96 1293.69,425.67"/>
    </edge>
    <edge id=":1682306558_6" function="internal">
        <lane id=":1682306558_6_0" index="0" disallow="tram rail_urban rail rail_electric rail_fast ship container cable_car subway aircraft wheelchair scooter drone" speed="13.89" length="15.21" shape="1280.56,433.16 1284.10,431.84 1287.49,430.09 1290.70,427.99 1293.69,425.67"/>
    </edge>
    <edge id=":1682306558_7" function="internal">
        <lane id=":1682306558_7_0" index="0" disallow="tram rail_urban rail rail_electric rail_fast ship container cable_car subway aircraft wheelchair scooter drone" speed="13.14" length="3.36" shape="1280.56,433.16 1283.89,432.73"/>
    </edge>
    <edge id=":1682306558_8" function="internal">
        <lane id=":1682306558_8_0" index="0" disallow="tram rail_urban rail rail_electric rail_fast ship container cable_car subway aircraft wheelchair scooter drone" speed="3.67" length="1.47" shape="1280.56,433.16 1282.02,433.33"/>
    </edge>
    <edge id=":1682306558_10" function="internal">
        <lane id=":1682306558_10_0" index="0" disallow="tram rail_urban rail rail_electric rail_fast ship container cable_car subway aircraft wheelchair scooter drone" speed="13.14" length="12.09" shape="1283.89,432.73 1284.28,432.68 1288.12,433.18 1291.90,434.37 1295.42,435.98"/>
    </edge>
    <edge id=":1682306558_11" function="internal">
        <lane id=":1682306558_11_0" index="0" disallow="tram rail_urban rail rail_electric rail_fast ship container cable_car subway aircraft wheelchair scooter drone" speed="3.67" length="3.29" shape="1282.02,433.33 1282.75,433.86 1282.77,434.77 1282.05,436.06"/>
    </edge>
    <edge id=":1682306568_0" function="internal">
        <lane id=":1682306568_0_0" index="0" disallow="tram rail_urban rail rail_electric rail_fast ship container cable_car subway aircraft wheelchair scooter drone" speed="9.48" length="11.17" shape="1458.84,437.03 1456.61,438.34 1454.83,440.24 1453.50,442.71 1452.61,445.76"/>
    </edge>
    <edge id=":1682306568_1" function="internal">
        <lane id=":1682306568_1_0" index="0" disallow="tram rail_urban rail rail_electric rail_fast ship container cable_car subway aircraft wheelchair scooter drone" speed="13.89" length="14.66" shape="1458.84,437.03 1455.34,438.20 1451.79,438.88 1448.16,439.17 1444.45,439.15"/>
    </edge>
    <edge id=":1682306568_2" function="internal">
        <lane id=":1682306568_2_0" index="0" disallow="tram rail_urban rail rail_electric rail_fast ship container cable_car subway aircraft wheelchair scooter drone" speed="3.69" length="1.49" shape="1458.84,437.03 1457.49,436.40"/>
    </edge>
    <edge id=":1682306568_9" function="internal">
        <lane id=":1682306568_9_0" index="0" disallow="tram rail_urban rail rail_electric rail_fast ship container cable_car subway aircraft wheelchair scooter drone" speed="3.69" length="3.33" shape="1457.49,436.40 1456.96,435.65 1457.24,434.77 1458.33,433.77"/>
    </edge>
    <edge id=":1682306568_3" function="internal">
        <lane id=":1682306568_3_0" index="0" disallow="tram rail_urban rail rail_electric rail_fast ship container cable_car subway aircraft wheelchair scooter drone" speed="13.89" length="14.62" shape="1443.99,435.93 1447.69,435.94 1451.30,435.64 1454.85,434.95 1458.33,433.77"/>
    </edge>
    <edge id=":1682306568_4" function="internal">
        <lane id=":1682306568_4_0" index="0" disallow="tram rail_urban rail rail_electric rail_fast ship container cable_car subway aircraft wheelchair scooter drone" speed="7.91" length="4.38" shape="1443.99,435.93 1448.30,436.66"/>
    </edge>
    <edge id=":1682306568_5" function="internal">
        <lane id=":1682306568_5_0" index="0" disallow="tram rail_urban rail rail_electric rail_fast ship container cable_car subway aircraft wheelchair scooter drone" speed="3.67" length="1.47" shape="1443.99,435.93 1445.31,436.56"/>
    </edge>
    <edge id=":1682306568_10" function="internal">
        <lane id=":1682306568_10_0" index="0" disallow="tram rail_urban rail rail_electric rail_fast ship container cable_car subway aircraft wheelchair scooter drone" speed="7.91" length="11.13" shape="1448.30,436.66 1448.46,436.69 1451.39,438.58 1452.77,441.61 1452.61,445.76"/>
    </edge>
    <edge id=":1682306568_11" function="internal">
        <lane id=":1682306568_11_0" index="0" disallow="tram rail_urban rail rail_electric rail_fast ship container cable_car subway aircraft wheelchair scooter drone" speed="3.67" length="3.28" shape="1445.31,436.56 1445.83,437.31 1445.54,438.17 1444.45,439.15"/>
    </edge>
    <edge id=":1682306568_6" function="internal">
        <lane id=":1682306568_6_0" index="0" disallow="tram rail_urban rail rail_electric rail_fast ship container cable_car subway aircraft wheelchair scooter drone" speed="6.26" length="9.28" shape="1449.47,445.14 1449.58,442.61 1448.78,440.76 1447.07,439.61 1444.45,439.15"/>
    </edge>
    <edge id=":1682306568_7" function="internal">
        <lane id=":1682306568_7_0" index="0" disallow="tram rail_urban rail rail_electric rail_fast ship container cable_car subway aircraft wheelchair scooter drone" speed="10.93" length="15.04" shape="1449.47,445.14 1450.64,441.30 1452.51,438.12 1455.08,435.61 1458.33,433.77"/>
    </edge>
    <edge id=":1682306568_8" function="internal">
        <lane id=":1682306568_8_0" index="0" disallow="tram rail_urban rail rail_electric rail_fast ship container cable_car subway aircraft wheelchair scooter drone" speed="3.65" length="4.67" shape="1449.47,445.14 1450.49,444.12 1451.35,443.88 1452.06,444.43 1452.61,445.76"/>
    </edge>
    <edge id=":1682306660_0" function="internal">
        <lane id=":1682306660_0_0" index="0" disallow="tram rail_urban rail rail_electric rail_fast ship container cable_car subway aircraft wheelchair scooter drone" speed="7.87" length="11.14" shape="1330.45,478.91 1326.91,479.23 1324.21,480.14 1322.35,481.65 1321.34,483.76"/>
    </edge>
    <edge id=":1682306660_1" function="internal">
        <lane id=":1682306660_1_0" index="0" disallow="tram rail_urban rail rail_electric rail_fast ship container cable_car subway aircraft wheelchair scooter drone" speed="8.32" length="3.69" shape="1330.45,478.91 1326.79,478.45"/>
    </edge>
    <edge id=":1682306660_2" function="internal">
        <lane id=":1682306660_2_0" index="0" disallow="tram rail_urban rail rail_electric rail_fast ship container cable_car subway aircraft wheelchair scooter drone" speed="3.66" length="1.45" shape="1330.45,478.91 1329.16,478.25"/>
    </edge>
    <edge id=":1682306660_9" function="internal">
        <lane id=":1682306660_9_0" index="0" disallow="tram rail_urban rail rail_electric rail_fast ship container cable_car subway aircraft wheelchair scooter drone" speed="8.32" length="10.56" shape="1326.79,478.45 1326.51,478.41 1323.57,476.88 1321.63,474.30 1320.70,470.69"/>
    </edge>
    <edge id=":1682306660_10" function="internal">
        <lane id=":1682306660_10_0" index="0" disallow="tram rail_urban rail rail_electric rail_fast ship container cable_car subway aircraft wheelchair scooter drone" speed="3.66" length="3.25" shape="1329.16,478.25 1328.67,477.50 1328.97,476.65 1330.07,475.71"/>
    </edge>
    <edge id=":1682306660_3" function="internal">
        <lane id=":1682306660_3_0" index="0" disallow="tram rail_urban rail rail_electric rail_fast ship container cable_car subway aircraft wheelchair scooter drone" speed="6.78" length="9.15" shape="1323.88,470.36 1324.48,472.71 1325.71,474.39 1327.57,475.39 1330.07,475.71"/>
    </edge>
    <edge id=":1682306660_4" function="internal">
        <lane id=":1682306660_4_0" index="0" disallow="tram rail_urban rail rail_electric rail_fast ship container cable_car subway aircraft wheelchair scooter drone" speed="13.89" length="13.73" shape="1323.88,470.36 1323.87,473.86 1323.25,477.10 1322.31,480.32 1321.34,483.76"/>
    </edge>
    <edge id=":1682306660_5" function="internal">
        <lane id=":1682306660_5_0" index="0" disallow="tram rail_urban rail rail_electric rail_fast ship container cable_car subway aircraft wheelchair scooter drone" speed="3.65" length="4.67" shape="1323.88,470.36 1323.21,471.63 1322.45,472.11 1321.62,471.80 1320.70,470.69"/>
    </edge>
    <edge id=":1682306660_6" function="internal">
        <lane id=":1682306660_6_0" index="0" disallow="tram rail_urban rail rail_electric rail_fast ship container cable_car subway aircraft wheelchair scooter drone" speed="13.89" length="10.44" shape="1318.76,480.83 1319.64,477.90 1320.37,475.80 1320.78,473.69 1320.70,470.69"/>
    </edge>
    <edge id=":1682306660_7" function="internal">
        <lane id=":1682306660_7_0" index="0" disallow="tram rail_urban rail rail_electric rail_fast ship container cable_car subway aircraft wheelchair scooter drone" speed="8.55" length="13.30" shape="1318.76,480.83 1319.93,478.61 1322.21,477.02 1325.59,476.05 1330.07,475.71"/>
    </edge>
    <edge id=":1682306660_8" function="internal">
        <lane id=":1682306660_8_0" index="0" disallow="tram rail_urban rail rail_electric rail_fast ship container cable_car subway aircraft wheelchair scooter drone" speed="3.91" length="1.76" shape="1318.76,480.83 1320.51,480.60"/>
    </edge>
    <edge id=":1682306660_11" function="internal">
        <lane id=":1682306660_11_0" index="0" disallow="tram rail_urban rail rail_electric rail_fast ship container cable_car subway aircraft wheelchair scooter drone" speed="3.91" length="3.94" shape="1320.51,480.60 1321.52,481.01 1321.79,482.06 1321.34,483.76"/>
    </edge>
    <edge id=":1682306671_0" function="internal">
        <lane id=":1682306671_0_0" index="0" disallow="tram rail_urban rail rail_electric rail_fast ship container cable_car subway aircraft wheelchair scooter drone" speed="13.89" length="12.20" shape="1222.54,495.32 1221.14,492.33 1220.34,489.64 1219.52,486.96 1218.05,484.02"/>
    </edge>
    <edge id=":1682306671_1" function="internal">
        <lane id=":1682306671_1_0" index="0" disallow="tram rail_urban rail rail_electric rail_fast ship container cable_car subway aircraft wheelchair scooter drone" speed="8.71" length="2.86" shape="1222.54,495.32 1221.94,492.94 1222.04,492.54"/>
    </edge>
    <edge id=":1682306671_2" function="internal">
        <lane id=":1682306671_2_0" index="0" disallow="tram rail_urban rail rail_electric rail_fast ship container cable_car subway aircraft wheelchair scooter drone" speed="3.79" length="1.46" shape="1222.54,495.32 1223.25,494.04"/>
    </edge>
    <edge id=":1682306671_9" function="internal">
        <lane id=":1682306671_9_0" index="0" disallow="tram rail_urban rail rail_electric rail_fast ship container cable_car subway aircraft wheelchair scooter drone" speed="8.71" length="11.35" shape="1222.04,492.54 1222.69,490.15 1224.80,486.93 1228.26,483.30"/>
    </edge>
    <edge id=":1682306671_10" function="internal">
        <lane id=":1682306671_10_0" index="0" disallow="tram rail_urban rail rail_electric rail_fast ship container cable_car subway aircraft wheelchair scooter drone" speed="3.79" length="3.75" shape="1223.25,494.04 1223.32,493.92 1224.18,493.40 1225.10,493.78 1226.09,495.04"/>
    </edge>
    <edge id=":1682306671_3" function="internal">
        <lane id=":1682306671_3_0" index="0" disallow="tram rail_urban rail rail_electric rail_fast ship container cable_car subway aircraft wheelchair scooter drone" speed="7.75" length="11.07" shape="1230.44,485.64 1227.77,488.46 1226.16,490.96 1225.60,493.16 1226.09,495.04"/>
    </edge>
    <edge id=":1682306671_4" function="internal">
        <lane id=":1682306671_4_0" index="0" disallow="tram rail_urban rail rail_electric rail_fast ship container cable_car subway aircraft wheelchair scooter drone" speed="7.71" length="14.95" shape="1230.44,485.64 1226.97,488.04 1223.75,488.57 1220.78,487.23 1218.05,484.02"/>
    </edge>
    <edge id=":1682306671_5" function="internal">
        <lane id=":1682306671_5_0" index="0" disallow="tram rail_urban rail rail_electric rail_fast ship container cable_car subway aircraft wheelchair scooter drone" speed="3.65" length="4.67" shape="1230.44,485.64 1229.02,485.87 1228.18,485.56 1227.93,484.70 1228.26,483.30"/>
    </edge>
    <edge id=":1682306671_6" function="internal">
        <lane id=":1682306671_6_0" index="0" disallow="tram rail_urban rail rail_electric rail_fast ship container cable_car subway aircraft wheelchair scooter drone" speed="6.14" length="9.06" shape="1220.76,482.31 1222.41,484.26 1224.21,485.07 1226.16,484.75 1228.26,483.30"/>
    </edge>
    <edge id=":1682306671_7" function="internal">
        <lane id=":1682306671_7_0" index="0" disallow="tram rail_urban rail rail_electric rail_fast ship container cable_car subway aircraft wheelchair scooter drone" speed="13.89" length="13.83" shape="1220.76,482.31 1222.36,485.48 1223.47,488.65 1224.56,491.83 1226.09,495.04"/>
    </edge>
    <edge id=":1682306671_8" function="internal">
        <lane id=":1682306671_8_0" index="0" disallow="tram rail_urban rail rail_electric rail_fast ship container cable_car subway aircraft wheelchair scooter drone" speed="3.65" length="1.44" shape="1220.76,482.31 1220.72,483.75"/>
    </edge>
    <edge id=":1682306671_11" function="internal">
        <lane id=":1682306671_11_0" index="0" disallow="tram rail_urban rail rail_electric rail_fast ship container cable_car subway aircraft wheelchair scooter drone" speed="3.65" length="3.23" shape="1220.72,483.75 1220.26,484.52 1219.37,484.61 1218.05,484.02"/>
    </edge>
    <edge id=":1682306681_0" function="internal">
        <lane id=":1682306681_0_0" index="0" disallow="tram rail_urban rail rail_electric rail_fast ship container cable_car subway aircraft wheelchair scooter drone" speed="6.41" length="8.85" shape="1318.06,506.19 1317.14,503.81 1315.77,502.30 1313.93,501.66 1311.63,501.89"/>
    </edge>
    <edge id=":1682306681_1" function="internal">
        <lane id=":1682306681_1_0" index="0" disallow="tram rail_urban rail rail_electric rail_fast ship container cable_car subway aircraft wheelchair scooter drone" speed="13.89" length="14.31" shape="1318.06,506.19 1317.40,502.62 1317.12,499.12 1317.09,495.60 1317.19,491.95"/>
    </edge>
    <edge id=":1682306681_2" function="internal">
        <lane id=":1682306681_2_0" index="0" disallow="tram rail_urban rail rail_electric rail_fast ship container cable_car subway aircraft wheelchair scooter drone" speed="3.66" length="1.45" shape="1318.06,506.19 1318.71,504.89"/>
    </edge>
    <edge id=":1682306681_9" function="internal">
        <lane id=":1682306681_9_0" index="0" disallow="tram rail_urban rail rail_electric rail_fast ship container cable_car subway aircraft wheelchair scooter drone" speed="3.66" length="3.25" shape="1318.71,504.89 1319.46,504.40 1320.31,504.70 1321.25,505.80"/>
    </edge>
    <edge id=":1682306681_3" function="internal">
        <lane id=":1682306681_3_0" index="0" disallow="tram rail_urban rail rail_electric rail_fast ship container cable_car subway aircraft wheelchair scooter drone" speed="13.89" length="13.88" shape="1320.39,492.00 1320.29,495.58 1320.32,498.95 1320.60,502.30 1321.25,505.80"/>
    </edge>
    <edge id=":1682306681_4" function="internal">
        <lane id=":1682306681_4_0" index="0" disallow="tram rail_urban rail rail_electric rail_fast ship container cable_car subway aircraft wheelchair scooter drone" speed="9.02" length="3.78" shape="1320.39,492.00 1319.75,495.49 1319.63,495.69"/>
    </edge>
    <edge id=":1682306681_5" function="internal">
        <lane id=":1682306681_5_0" index="0" disallow="tram rail_urban rail rail_electric rail_fast ship container cable_car subway aircraft wheelchair scooter drone" speed="3.65" length="1.44" shape="1320.39,492.00 1319.57,493.19"/>
    </edge>
    <edge id=":1682306681_10" function="internal">
        <lane id=":1682306681_10_0" index="0" disallow="tram rail_urban rail rail_electric rail_fast ship container cable_car subway aircraft wheelchair scooter drone" speed="9.02" length="10.50" shape="1319.63,495.69 1318.07,498.31 1315.37,500.44 1311.63,501.89"/>
    </edge>
    <edge id=":1682306681_11" function="internal">
        <lane id=":1682306681_11_0" index="0" disallow="tram rail_urban rail rail_electric rail_fast ship container cable_car subway aircraft wheelchair scooter drone" speed="3.65" length="3.23" shape="1319.57,493.19 1318.76,493.57 1317.97,493.16 1317.19,491.95"/>
    </edge>
    <edge id=":1682306681_6" function="internal">
        <lane id=":1682306681_6_0" index="0" disallow="tram rail_urban rail rail_electric rail_fast ship container cable_car subway aircraft wheelchair scooter drone" speed="7.66" length="10.09" shape="1310.83,498.79 1313.54,497.76 1315.51,496.27 1316.73,494.34 1317.19,491.95"/>
    </edge>
    <edge id=":1682306681_7" function="internal">
        <lane id=":1682306681_7_0" index="0" disallow="tram rail_urban rail rail_electric rail_fast ship container cable_car subway aircraft wheelchair scooter drone" speed="8.00" length="14.37" shape="1310.83,498.79 1314.56,498.43 1317.54,499.47 1319.77,501.93 1321.25,505.80"/>
    </edge>
    <edge id=":1682306681_8" function="internal">
        <lane id=":1682306681_8_0" index="0" disallow="tram rail_urban rail rail_electric rail_fast ship container cable_car subway aircraft wheelchair scooter drone" speed="3.65" length="4.67" shape="1310.83,498.79 1312.19,499.26 1312.78,499.93 1312.59,500.81 1311.63,501.89"/>
    </edge>
    <edge id=":1682306704_0" function="internal">
        <lane id=":1682306704_0_0" index="0" disallow="tram rail_urban rail rail_electric rail_fast ship container cable_car subway aircraft wheelchair scooter drone" speed="13.89" length="14.82" shape="1249.06,531.73 1240.02,519.99"/>
    </edge>
    <edge id=":1682306704_1" function="internal">
        <lane id=":1682306704_1_0" index="0" disallow="tram rail_urban rail rail_electric rail_fast ship container cable_car subway aircraft wheelchair scooter drone" speed="7.52" length="4.57" shape="1249.06,531.73 1246.81,527.76"/>
    </edge>
    <edge id=":1682306704_2" function="internal">
        <lane id=":1682306704_2_0" index="0" disallow="tram rail_urban rail rail_electric rail_fast ship container cable_car subway aircraft wheelchair scooter drone" speed="3.65" length="1.44" shape="1249.06,531.73 1248.96,530.29"/>
    </edge>
    <edge id=":1682306704_9" function="internal">
        <lane id=":1682306704_9_0" index="0" disallow="tram rail_urban rail rail_electric rail_fast ship container cable_car subway aircraft wheelchair scooter drone" speed="7.52" length="11.18" shape="1246.81,527.76 1246.68,524.45 1248.68,521.82 1252.81,519.86"/>
    </edge>
    <edge id=":1682306704_10" function="internal">
        <lane id=":1682306704_10_0" index="0" disallow="tram rail_urban rail rail_electric rail_fast ship container cable_car subway aircraft wheelchair scooter drone" speed="3.65" length="3.23" shape="1248.96,530.29 1249.35,529.49 1250.23,529.32 1251.60,529.78"/>
    </edge>
    <edge id=":1682306704_3" function="internal">
        <lane id=":1682306704_3_0" index="0" disallow="tram rail_urban rail rail_electric rail_fast ship container cable_car subway aircraft wheelchair scooter drone" speed="5.88" length="9.11" shape="1253.76,522.91 1251.38,524.05 1250.22,525.57 1250.29,527.48 1251.60,529.78"/>
    </edge>
    <edge id=":1682306704_4" function="internal">
        <lane id=":1682306704_4_0" index="0" disallow="tram rail_urban rail rail_electric rail_fast ship container cable_car subway aircraft wheelchair scooter drone" speed="9.53" length="15.02" shape="1253.76,522.91 1249.43,523.82 1245.70,523.63 1242.56,522.35 1240.02,519.99"/>
    </edge>
    <edge id=":1682306704_5" function="internal">
        <lane id=":1682306704_5_0" index="0" disallow="tram rail_urban rail rail_electric rail_fast ship container cable_car subway aircraft wheelchair scooter drone" speed="3.65" length="4.67" shape="1253.76,522.91 1252.38,522.51 1251.76,521.86 1251.90,520.98 1252.81,519.86"/>
    </edge>
    <edge id=":1682306704_6" function="internal">
        <lane id=":1682306704_6_0" index="0" disallow="tram rail_urban rail rail_electric rail_fast ship container cable_car subway aircraft wheelchair scooter drone" speed="8.26" length="11.11" shape="1242.56,518.04 1244.37,519.67 1246.68,520.52 1249.49,520.58 1252.81,519.86"/>
    </edge>
    <edge id=":1682306704_7" function="internal">
        <lane id=":1682306704_7_0" index="0" disallow="tram rail_urban rail rail_electric rail_fast ship container cable_car subway aircraft wheelchair scooter drone" speed="13.89" length="14.82" shape="1242.56,518.04 1251.60,529.78"/>
    </edge>
    <edge id=":1682306704_8" function="internal">
        <lane id=":1682306704_8_0" index="0" disallow="tram rail_urban rail rail_electric rail_fast ship container cable_car subway aircraft wheelchair scooter drone" speed="3.65" length="1.44" shape="1242.56,518.04 1242.65,519.48"/>
    </edge>
    <edge id=":1682306704_11" function="internal">
        <lane id=":1682306704_11_0" index="0" disallow="tram rail_urban rail rail_electric rail_fast ship container cable_car subway aircraft wheelchair scooter drone" speed="3.65" length="3.23" shape="1242.65,519.48 1242.26,520.28 1241.39,520.45 1240.02,519.99"/>
    </edge>
    <edge id=":1682306714_0" function="internal">
        <lane id=":1682306714_0_0" index="0" disallow="tram rail_urban rail rail_electric rail_fast ship container cable_car subway aircraft wheelchair scooter drone" speed="6.61" length="7.03" shape="1334.20,554.66 1332.98,553.25 1331.56,552.40 1329.93,552.09 1328.09,552.33"/>
    </edge>
    <edge id=":1682306714_1" function="internal">
        <lane id=":1682306714_1_0" index="0" disallow="tram rail_urban rail rail_electric rail_fast ship container cable_car subway aircraft wheelchair scooter drone" speed="13.89" length="10.94" shape="1334.20,554.66 1332.73,551.94 1332.03,549.70 1331.45,547.39 1330.34,544.48"/>
    </edge>
    <edge id=":1682306714_2" function="internal">
        <lane id=":1682306714_2_0" index="0" disallow="tram rail_urban rail rail_electric rail_fast ship container cable_car subway aircraft wheelchair scooter drone" speed="3.65" length="1.44" shape="1334.20,554.66 1334.20,553.21"/>
    </edge>
    <edge id=":1682306714_9" function="internal">
        <lane id=":1682306714_9_0" index="0" disallow="tram rail_urban rail rail_electric rail_fast ship container cable_car subway aircraft wheelchair scooter drone" speed="3.65" length="3.23" shape="1334.20,553.21 1334.65,552.44 1335.54,552.33 1336.87,552.89"/>
    </edge>
    <edge id=":1682306714_3" function="internal">
        <lane id=":1682306714_3_0" index="0" disallow="tram rail_urban rail rail_electric rail_fast ship container cable_car subway aircraft wheelchair scooter drone" speed="13.89" length="8.67" shape="1334.01,544.76 1334.90,547.17 1335.24,548.94 1335.68,550.65 1336.87,552.89"/>
    </edge>
    <edge id=":1682306714_4" function="internal">
        <lane id=":1682306714_4_0" index="0" disallow="tram rail_urban rail rail_electric rail_fast ship container cable_car subway aircraft wheelchair scooter drone" speed="6.79" length="3.27" shape="1334.01,544.76 1334.58,547.24 1334.32,547.92"/>
    </edge>
    <edge id=":1682306714_5" function="internal">