<?xml version='1.0' encoding='utf-8'?>
<routes xmlns:xsi="http://www.w3.org/2001/XMLSchema-instance" xsi:noNamespaceSchemaLocation="http://sumo.dlr.de/xsd/routes_file.xsd">
    <trip id="0" depart="0.00" from="173941109#4" to="-155875663#2" type="autonomous_car" />
    <trip id="1" depart="1.00" from="-173942329#0" to="-173941829" type="gasoline_car" />
    <trip id="2" depart="2.00" from="173942067#3" to="173941457" type="autonomous_car" />
    <trip id="3" depart="3.00" from="557160722#0" to="-155884513#2" type="gasoline_car" />
    <trip id="4" depart="4.00" from="-173941788#2" to="155875687#2" type="autonomous_car" />
    <trip id="5" depart="5.00" from="-155875663#3" to="-173941420" type="autonomous_car" />
    <trip id="6" depart="6.00" from="173941152#0" to="155884463#1" type="gasoline_car" />
    <trip id="7" depart="7.00" from="-173941788#2" to="170844796#7" type="gasoline_car" />
    <trip id="8" depart="8.00" from="251788755#2" to="173941829" type="gasoline_car" />
    <trip id="9" depart="9.00" from="-496906168#2" to="-173941109#0" type="gasoline_car" />
    </routes>